CHEMBL3752078
 OpenBabel01072218233D

 39 39  0  0  0  0  0  0  0  0999 V2000
    7.3221   -1.0871    4.1248 C   0  0  0  0  0  0  0  0  0  0  0  0
    6.7519   -0.7440    2.7577 C   0  0  0  0  0  0  0  0  0  0  0  0
    7.2593    0.6112    2.2711 C   0  0  0  0  0  0  0  0  0  0  0  0
    6.6884    0.9568    0.8956 C   0  0  0  0  0  0  0  0  0  0  0  0
    7.2072    2.3115    0.4142 C   0  0  0  0  0  0  0  0  0  0  0  0
    6.6524    2.6583   -0.9681 C   0  0  0  0  0  0  0  0  0  0  0  0
    7.1165    4.0313   -1.4382 C   0  0  0  0  0  0  0  0  0  0  0  0
    8.5417    4.0614   -1.5438 O   0  0  0  0  0  0  0  0  0  0  0  0
    8.9879    5.3570   -1.9461 C   0  0  0  0  0  0  0  0  0  0  0  0
   10.5105    5.3805   -2.0616 C   0  0  0  0  0  0  0  0  0  0  0  0
   10.9751    6.7248   -2.5297 C   0  0  0  0  0  0  0  0  0  0  0  0
   11.1357    7.0538   -4.2096 S   0  0  0  0  0  0  0  0  0  0  0  0
   11.5541    8.6696   -3.8379 C   0  0  0  0  0  0  0  0  0  0  0  0
   11.6041    8.9748   -2.5615 N   0  0  0  0  0  0  0  0  0  0  0  0
   11.2829    7.8628   -1.7984 C   0  0  0  0  0  0  0  0  0  0  0  0
   11.2677    8.0107   -0.3187 C   0  0  0  0  0  0  0  0  0  0  0  0
    6.9482   -2.0594    4.4584 H   0  0  0  0  0  0  0  0  0  0  0  0
    7.0330   -0.3369    4.8685 H   0  0  0  0  0  0  0  0  0  0  0  0
    8.4148   -1.1344    4.0917 H   0  0  0  0  0  0  0  0  0  0  0  0
    5.6573   -0.7348    2.8187 H   0  0  0  0  0  0  0  0  0  0  0  0
    7.0309   -1.5285    2.0454 H   0  0  0  0  0  0  0  0  0  0  0  0
    8.3546    0.5968    2.2200 H   0  0  0  0  0  0  0  0  0  0  0  0
    6.9799    1.3904    2.9906 H   0  0  0  0  0  0  0  0  0  0  0  0
    5.5932    0.9775    0.9448 H   0  0  0  0  0  0  0  0  0  0  0  0
    6.9663    0.1786    0.1747 H   0  0  0  0  0  0  0  0  0  0  0  0
    8.3023    2.2916    0.3823 H   0  0  0  0  0  0  0  0  0  0  0  0
    6.9186    3.0900    1.1310 H   0  0  0  0  0  0  0  0  0  0  0  0
    5.5574    2.6420   -0.9435 H   0  0  0  0  0  0  0  0  0  0  0  0
    6.9799    1.8960   -1.6867 H   0  0  0  0  0  0  0  0  0  0  0  0
    6.7840    4.7995   -0.7297 H   0  0  0  0  0  0  0  0  0  0  0  0
    6.6770    4.2453   -2.4194 H   0  0  0  0  0  0  0  0  0  0  0  0
    8.6582    6.0960   -1.2051 H   0  0  0  0  0  0  0  0  0  0  0  0
    8.5306    5.6069   -2.9110 H   0  0  0  0  0  0  0  0  0  0  0  0
   10.8470    4.5871   -2.7418 H   0  0  0  0  0  0  0  0  0  0  0  0
   10.9593    5.1366   -1.0911 H   0  0  0  0  0  0  0  0  0  0  0  0
   11.7619    9.3945   -4.6136 H   0  0  0  0  0  0  0  0  0  0  0  0
   11.7083    8.9670   -0.0185 H   0  0  0  0  0  0  0  0  0  0  0  0
   11.8427    7.2112    0.1583 H   0  0  0  0  0  0  0  0  0  0  0  0
   10.2405    7.9769    0.0570 H   0  0  0  0  0  0  0  0  0  0  0  0
  1  2  1  0  0  0  0
  1 17  1  0  0  0  0
  1 18  1  0  0  0  0
  1 19  1  0  0  0  0
  2  3  1  0  0  0  0
  2 20  1  0  0  0  0
  2 21  1  0  0  0  0
  3  4  1  0  0  0  0
  3 22  1  0  0  0  0
  3 23  1  0  0  0  0
  4  5  1  0  0  0  0
  4 24  1  0  0  0  0
  4 25  1  0  0  0  0
  5  6  1  0  0  0  0
  5 26  1  0  0  0  0
  5 27  1  0  0  0  0
  6  7  1  0  0  0  0
  6 28  1  0  0  0  0
  6 29  1  0  0  0  0
  7  8  1  0  0  0  0
  7 30  1  0  0  0  0
  7 31  1  0  0  0  0
  8  9  1  0  0  0  0
  9 10  1  0  0  0  0
  9 32  1  0  0  0  0
  9 33  1  0  0  0  0
 10 11  1  0  0  0  0
 10 34  1  0  0  0  0
 10 35  1  0  0  0  0
 11 12  1  0  0  0  0
 11 15  2  0  0  0  0
 12 13  1  0  0  0  0
 13 14  2  0  0  0  0
 13 36  1  0  0  0  0
 14 15  1  0  0  0  0
 15 16  1  0  0  0  0
 16 37  1  0  0  0  0
 16 38  1  0  0  0  0
 16 39  1  0  0  0  0
M  END
$$$$
CHEMBL2021610
 OpenBabel01072218233D

 20 20  0  0  0  0  0  0  0  0999 V2000
   -2.6159   -0.1782   -0.0192 C   0  0  0  0  0  0  0  0  0  0  0  0
   -1.1329   -0.0608   -0.0052 C   0  0  0  0  0  0  0  0  0  0  0  0
   -0.5904    1.2149   -0.0060 N   0  0  0  0  0  0  0  0  0  0  0  0
    0.7206    1.1462    0.0025 C   0  0  0  0  0  0  0  0  0  0  0  0
    1.3882   -0.4273    0.0151 S   0  0  0  0  0  0  0  0  0  0  0  0
   -0.2005   -1.0887    0.0136 C   0  0  0  0  0  0  0  0  0  0  0  0
   -0.3928   -2.5731    0.0358 C   0  0  0  0  0  0  0  0  0  0  0  0
   -0.4437   -3.1165    1.4637 C   0  0  0  0  0  0  0  0  0  0  0  0
   -0.5812   -4.5355    1.4030 O   0  0  0  0  0  0  0  0  0  0  0  0
   -0.6253   -5.1296    2.6889 N   0  3  0  0  0  0  0  0  0  0  0  0
   -0.5636   -4.3742    3.6616 O   0  0  0  0  0  0  0  0  0  0  0  0
   -0.7267   -6.3528    2.6457 O   0  5  0  0  0  0  0  0  0  0  0  0
   -3.0836    0.8123   -0.0245 H   0  0  0  0  0  0  0  0  0  0  0  0
   -2.9702   -0.7125    0.8676 H   0  0  0  0  0  0  0  0  0  0  0  0
   -2.9524   -0.7131   -0.9126 H   0  0  0  0  0  0  0  0  0  0  0  0
    1.3452    2.0299    0.0022 H   0  0  0  0  0  0  0  0  0  0  0  0
    0.4125   -3.0749   -0.5177 H   0  0  0  0  0  0  0  0  0  0  0  0
   -1.3134   -2.8458   -0.4957 H   0  0  0  0  0  0  0  0  0  0  0  0
   -1.3009   -2.6777    1.9899 H   0  0  0  0  0  0  0  0  0  0  0  0
    0.4829   -2.8548    1.9910 H   0  0  0  0  0  0  0  0  0  0  0  0
  1  2  1  0  0  0  0
  1 13  1  0  0  0  0
  1 14  1  0  0  0  0
  1 15  1  0  0  0  0
  2  3  1  0  0  0  0
  2  6  2  0  0  0  0
  3  4  2  0  0  0  0
  4  5  1  0  0  0  0
  4 16  1  0  0  0  0
  5  6  1  0  0  0  0
  6  7  1  0  0  0  0
  7  8  1  0  0  0  0
  7 17  1  0  0  0  0
  7 18  1  0  0  0  0
  8  9  1  0  0  0  0
  8 19  1  0  0  0  0
  8 20  1  0  0  0  0
  9 10  1  0  0  0  0
 10 11  2  0  0  0  0
 10 12  1  0  0  0  0
M  CHG  2  10   1  12  -1
M  END
$$$$
CHEMBL4553561
 OpenBabel01072218233D

 12 12  0  0  0  0  0  0  0  0999 V2000
    1.4308    0.4851    1.0492 O   0  0  0  0  0  0  0  0  0  0  0  0
    2.2533    0.0837   -0.0358 C   0  0  0  0  0  0  0  0  0  0  0  0
    2.7143   -1.2979    0.2490 C   0  0  0  0  0  0  0  0  0  0  0  0
    4.1657   -1.5784    1.1276 S   0  0  0  0  0  0  0  0  0  0  0  0
    3.9297   -3.2643    0.9495 C   0  0  0  0  0  0  0  0  0  0  0  0
    2.8571   -3.6330    0.2880 N   0  0  0  0  0  0  0  0  0  0  0  0
    2.1486   -2.5104   -0.1045 C   0  0  0  0  0  0  0  0  0  0  0  0
    0.6943   -2.6994   -0.9925 Cl  0  0  0  0  0  0  0  0  0  0  0  0
    1.0893    1.3691    0.8359 H   0  0  0  0  0  0  0  0  0  0  0  0
    3.0897    0.7844   -0.1250 H   0  0  0  0  0  0  0  0  0  0  0  0
    1.6689    0.1297   -0.9601 H   0  0  0  0  0  0  0  0  0  0  0  0
    4.6315   -3.9812    1.3562 H   0  0  0  0  0  0  0  0  0  0  0  0
  1  2  1  0  0  0  0
  1  9  1  0  0  0  0
  2  3  1  0  0  0  0
  2 10  1  0  0  0  0
  2 11  1  0  0  0  0
  3  4  1  0  0  0  0
  3  7  2  0  0  0  0
  4  5  1  0  0  0  0
  5  6  2  0  0  0  0
  5 12  1  0  0  0  0
  6  7  1  0  0  0  0
  7  8  1  0  0  0  0
M  END
$$$$
CHEMBL3483821
 OpenBabel01072218233D

 34 35  0  0  0  0  0  0  0  0999 V2000
   -1.9514   -0.0877   -2.7069 C   0  0  0  0  0  0  0  0  0  0  0  0
   -1.0303    0.0665   -1.5500 C   0  0  0  0  0  0  0  0  0  0  0  0
   -0.6398    1.3508   -1.1982 N   0  0  0  0  0  0  0  0  0  0  0  0
    0.1771    1.3043   -0.1712 C   0  0  0  0  0  0  0  0  0  0  0  0
    0.5246   -0.2522    0.4438 S   0  0  0  0  0  0  0  0  0  0  0  0
   -0.4830   -0.9407   -0.7690 C   0  0  0  0  0  0  0  0  0  0  0  0
   -0.6152   -2.4296   -0.8788 C   0  0  0  0  0  0  0  0  0  0  0  0
   -1.7248   -3.0037    0.0104 C   0  0  0  0  0  0  0  0  0  0  0  0
   -1.9688   -4.4467   -0.1580 N   0  0  0  0  0  0  0  0  0  0  0  0
   -0.8312   -5.3606   -0.1723 C   0  0  0  0  0  0  0  0  0  0  0  0
   -3.2878   -4.9040    0.1113 C   0  0  0  0  0  0  0  0  0  0  0  0
   -4.1998   -4.1012    0.3233 O   0  0  0  0  0  0  0  0  0  0  0  0
   -3.6020   -6.3777    0.1604 C   0  0  0  0  0  0  0  0  0  0  0  0
   -2.6688   -7.1958    0.7297 N   0  0  0  0  0  0  0  0  0  0  0  0
   -2.9747   -8.5048    0.8508 C   0  0  0  0  0  0  0  0  0  0  0  0
   -4.1846   -9.0512    0.4620 C   0  0  0  0  0  0  0  0  0  0  0  0
   -5.1353   -8.2117   -0.1108 C   0  0  0  0  0  0  0  0  0  0  0  0
   -4.8421   -6.8565   -0.2769 C   0  0  0  0  0  0  0  0  0  0  0  0
   -5.7562   -6.0560   -0.8997 O   0  0  0  0  0  0  0  0  0  0  0  0
   -2.2124    0.8888   -3.1281 H   0  0  0  0  0  0  0  0  0  0  0  0
   -2.8782   -0.5815   -2.3992 H   0  0  0  0  0  0  0  0  0  0  0  0
   -1.4818   -0.6801   -3.4983 H   0  0  0  0  0  0  0  0  0  0  0  0
    0.6100    2.1950    0.2629 H   0  0  0  0  0  0  0  0  0  0  0  0
    0.3513   -2.8734   -0.6150 H   0  0  0  0  0  0  0  0  0  0  0  0
   -0.8033   -2.7083   -1.9225 H   0  0  0  0  0  0  0  0  0  0  0  0
   -2.6539   -2.4596   -0.2060 H   0  0  0  0  0  0  0  0  0  0  0  0
   -1.5065   -2.8327    1.0721 H   0  0  0  0  0  0  0  0  0  0  0  0
    0.0773   -4.8783   -0.5284 H   0  0  0  0  0  0  0  0  0  0  0  0
   -1.0390   -6.1882   -0.8561 H   0  0  0  0  0  0  0  0  0  0  0  0
   -0.6515   -5.7331    0.8397 H   0  0  0  0  0  0  0  0  0  0  0  0
   -2.1952   -9.1252    1.2856 H   0  0  0  0  0  0  0  0  0  0  0  0
   -4.3813  -10.1095    0.5963 H   0  0  0  0  0  0  0  0  0  0  0  0
   -6.0873   -8.6257   -0.4284 H   0  0  0  0  0  0  0  0  0  0  0  0
   -6.6144   -6.5045   -0.9474 H   0  0  0  0  0  0  0  0  0  0  0  0
  1  2  1  0  0  0  0
  1 20  1  0  0  0  0
  1 21  1  0  0  0  0
  1 22  1  0  0  0  0
  2  3  1  0  0  0  0
  2  6  2  0  0  0  0
  3  4  2  0  0  0  0
  4  5  1  0  0  0  0
  4 23  1  0  0  0  0
  5  6  1  0  0  0  0
  6  7  1  0  0  0  0
  7  8  1  0  0  0  0
  7 24  1  0  0  0  0
  7 25  1  0  0  0  0
  8  9  1  0  0  0  0
  8 26  1  0  0  0  0
  8 27  1  0  0  0  0
  9 10  1  0  0  0  0
  9 11  1  0  0  0  0
 10 28  1  0  0  0  0
 10 29  1  0  0  0  0
 10 30  1  0  0  0  0
 11 12  2  0  0  0  0
 11 13  1  0  0  0  0
 13 14  1  0  0  0  0
 13 18  2  0  0  0  0
 14 15  2  0  0  0  0
 15 16  1  0  0  0  0
 15 31  1  0  0  0  0
 16 17  2  0  0  0  0
 16 32  1  0  0  0  0
 17 18  1  0  0  0  0
 17 33  1  0  0  0  0
 18 19  1  0  0  0  0
 19 34  1  0  0  0  0
M  END
$$$$
CHEMBL1625376
 OpenBabel01072218233D

 32 33  0  0  0  0  0  0  0  0999 V2000
   -4.2172    0.0788    0.4932 C   0  0  0  0  0  0  0  0  0  0  0  0
   -2.7980    0.1938    0.9268 C   0  0  0  0  0  0  0  0  0  0  0  0
   -2.2275    1.4566    0.9400 N   0  0  0  0  0  0  0  0  0  0  0  0
   -0.9809    1.3807    1.3464 C   0  0  0  0  0  0  0  0  0  0  0  0
   -0.4061   -0.1856    1.7204 S   0  0  0  0  0  0  0  0  0  0  0  0
   -1.9475   -0.8316    1.3191 C   0  0  0  0  0  0  0  0  0  0  0  0
   -2.1913   -2.3091    1.3930 C   0  0  0  0  0  0  0  0  0  0  0  0
   -1.8807   -2.9620    0.0479 C   0  0  0  0  0  0  0  0  0  0  0  0
   -2.0642   -4.3833    0.0044 O   0  0  0  0  0  0  0  0  0  0  0  0
   -3.3548   -4.7839   -0.0604 C   0  0  0  0  0  0  0  0  0  0  0  0
   -4.2742   -4.3797    0.6291 O   0  0  0  0  0  0  0  0  0  0  0  0
   -3.5305   -5.7248   -1.1925 C   0  0  0  0  0  0  0  0  0  0  0  0
   -2.7094   -5.6400   -2.3288 C   0  0  0  0  0  0  0  0  0  0  0  0
   -2.9588   -6.4485   -3.4398 C   0  0  0  0  0  0  0  0  0  0  0  0
   -4.0313   -7.3499   -3.4069 C   0  0  0  0  0  0  0  0  0  0  0  0
   -4.2982   -8.1942   -4.5772 N   0  3  0  0  0  0  0  0  0  0  0  0
   -3.5561   -8.0673   -5.5599 O   0  0  0  0  0  0  0  0  0  0  0  0
   -5.2522   -8.9861   -4.5105 O   0  5  0  0  0  0  0  0  0  0  0  0
   -4.8564   -7.4391   -2.2768 C   0  0  0  0  0  0  0  0  0  0  0  0
   -4.6080   -6.6180   -1.1714 C   0  0  0  0  0  0  0  0  0  0  0  0
   -4.6354    1.0662    0.2691 H   0  0  0  0  0  0  0  0  0  0  0  0
   -4.8274   -0.3733    1.2811 H   0  0  0  0  0  0  0  0  0  0  0  0
   -4.2984   -0.5326   -0.4109 H   0  0  0  0  0  0  0  0  0  0  0  0
   -0.3499    2.2543    1.4380 H   0  0  0  0  0  0  0  0  0  0  0  0
   -3.2304   -2.4860    1.6867 H   0  0  0  0  0  0  0  0  0  0  0  0
   -1.5845   -2.7756    2.1786 H   0  0  0  0  0  0  0  0  0  0  0  0
   -0.8286   -2.7921   -0.2119 H   0  0  0  0  0  0  0  0  0  0  0  0
   -2.4690   -2.5099   -0.7607 H   0  0  0  0  0  0  0  0  0  0  0  0
   -1.8906   -4.9248   -2.3737 H   0  0  0  0  0  0  0  0  0  0  0  0
   -2.3218   -6.3533   -4.3166 H   0  0  0  0  0  0  0  0  0  0  0  0
   -5.6989   -8.1282   -2.2449 H   0  0  0  0  0  0  0  0  0  0  0  0
   -5.2632   -6.6664   -0.3026 H   0  0  0  0  0  0  0  0  0  0  0  0
  1  2  1  0  0  0  0
  1 21  1  0  0  0  0
  1 22  1  0  0  0  0
  1 23  1  0  0  0  0
  2  3  1  0  0  0  0
  2  6  2  0  0  0  0
  3  4  2  0  0  0  0
  4  5  1  0  0  0  0
  4 24  1  0  0  0  0
  5  6  1  0  0  0  0
  6  7  1  0  0  0  0
  7  8  1  0  0  0  0
  7 25  1  0  0  0  0
  7 26  1  0  0  0  0
  8  9  1  0  0  0  0
  8 27  1  0  0  0  0
  8 28  1  0  0  0  0
  9 10  1  0  0  0  0
 10 11  2  0  0  0  0
 10 12  1  0  0  0  0
 12 13  1  0  0  0  0
 12 20  2  0  0  0  0
 13 14  2  0  0  0  0
 13 29  1  0  0  0  0
 14 15  1  0  0  0  0
 14 30  1  0  0  0  0
 15 16  1  0  0  0  0
 15 19  2  0  0  0  0
 16 17  2  0  0  0  0
 16 18  1  0  0  0  0
 19 20  1  0  0  0  0
 19 31  1  0  0  0  0
 20 32  1  0  0  0  0
M  CHG  2  16   1  18  -1
M  END
$$$$
CHEMBL3478212
 OpenBabel01072218233D

 37 37  0  0  0  0  0  0  0  0999 V2000
    2.4106    1.0299   -0.9551 C   0  0  0  0  0  0  0  0  0  0  0  0
    2.5290   -0.0682    0.0912 C   0  0  0  0  0  0  0  0  0  0  0  0
    2.9681    0.4395    1.3958 N   0  0  0  0  0  0  0  0  0  0  0  0
    1.9908    0.6958    2.4713 C   0  0  0  0  0  0  0  0  0  0  0  0
    0.5014    0.8150    2.1257 C   0  0  0  0  0  0  0  0  0  0  0  0
   -0.0627   -0.4626    1.8328 O   0  0  0  0  0  0  0  0  0  0  0  0
   -1.4466   -0.3601    1.5220 C   0  0  0  0  0  0  0  0  0  0  0  0
    4.3467    0.5473    1.5965 C   0  0  0  0  0  0  0  0  0  0  0  0
    5.1572    0.3365    0.6906 O   0  0  0  0  0  0  0  0  0  0  0  0
    4.8401    0.8684    3.0000 C   0  0  0  0  0  0  0  0  0  0  0  0
    6.2225    1.5194    2.9523 C   0  0  0  0  0  0  0  0  0  0  0  0
    6.7070    1.8706    4.3256 C   0  0  0  0  0  0  0  0  0  0  0  0
    6.3219    3.3868    5.0371 S   0  0  0  0  0  0  0  0  0  0  0  0
    7.1961    2.9331    6.4386 C   0  0  0  0  0  0  0  0  0  0  0  0
    7.7451    1.7397    6.4132 N   0  0  0  0  0  0  0  0  0  0  0  0
    7.4787    1.1264    5.2018 C   0  0  0  0  0  0  0  0  0  0  0  0
    8.0268   -0.2375    4.9684 C   0  0  0  0  0  0  0  0  0  0  0  0
    2.1066    0.6019   -1.9161 H   0  0  0  0  0  0  0  0  0  0  0  0
    3.3665    1.5429   -1.1034 H   0  0  0  0  0  0  0  0  0  0  0  0
    1.6700    1.7811   -0.6669 H   0  0  0  0  0  0  0  0  0  0  0  0
    3.2617   -0.8038   -0.2633 H   0  0  0  0  0  0  0  0  0  0  0  0
    1.5913   -0.6159    0.1841 H   0  0  0  0  0  0  0  0  0  0  0  0
    2.2684    1.6514    2.9266 H   0  0  0  0  0  0  0  0  0  0  0  0
    2.1377   -0.0942    3.2165 H   0  0  0  0  0  0  0  0  0  0  0  0
    0.3486    1.5029    1.2881 H   0  0  0  0  0  0  0  0  0  0  0  0
   -0.0195    1.2177    3.0035 H   0  0  0  0  0  0  0  0  0  0  0  0
   -1.8040   -1.3440    1.2081 H   0  0  0  0  0  0  0  0  0  0  0  0
   -1.6085    0.3479    0.7030 H   0  0  0  0  0  0  0  0  0  0  0  0
   -2.0087   -0.0468    2.4067 H   0  0  0  0  0  0  0  0  0  0  0  0
    4.8770   -0.0738    3.5611 H   0  0  0  0  0  0  0  0  0  0  0  0
    4.1606    1.5403    3.5244 H   0  0  0  0  0  0  0  0  0  0  0  0
    6.1844    2.4195    2.3248 H   0  0  0  0  0  0  0  0  0  0  0  0
    6.9447    0.8474    2.4724 H   0  0  0  0  0  0  0  0  0  0  0  0
    7.2867    3.5945    7.2884 H   0  0  0  0  0  0  0  0  0  0  0  0
    8.6406   -0.5646    5.8143 H   0  0  0  0  0  0  0  0  0  0  0  0
    8.6543   -0.2487    4.0718 H   0  0  0  0  0  0  0  0  0  0  0  0
    7.2151   -0.9595    4.8375 H   0  0  0  0  0  0  0  0  0  0  0  0
  1  2  1  0  0  0  0
  1 18  1  0  0  0  0
  1 19  1  0  0  0  0
  1 20  1  0  0  0  0
  2  3  1  0  0  0  0
  2 21  1  0  0  0  0
  2 22  1  0  0  0  0
  3  4  1  0  0  0  0
  3  8  1  0  0  0  0
  4  5  1  0  0  0  0
  4 23  1  0  0  0  0
  4 24  1  0  0  0  0
  5  6  1  0  0  0  0
  5 25  1  0  0  0  0
  5 26  1  0  0  0  0
  6  7  1  0  0  0  0
  7 27  1  0  0  0  0
  7 28  1  0  0  0  0
  7 29  1  0  0  0  0
  8  9  2  0  0  0  0
  8 10  1  0  0  0  0
 10 11  1  0  0  0  0
 10 30  1  0  0  0  0
 10 31  1  0  0  0  0
 11 12  1  0  0  0  0
 11 32  1  0  0  0  0
 11 33  1  0  0  0  0
 12 13  1  0  0  0  0
 12 16  2  0  0  0  0
 13 14  1  0  0  0  0
 14 15  2  0  0  0  0
 14 34  1  0  0  0  0
 15 16  1  0  0  0  0
 16 17  1  0  0  0  0
 17 35  1  0  0  0  0
 17 36  1  0  0  0  0
 17 37  1  0  0  0  0
M  END
$$$$
CHEMBL1326498
 OpenBabel01072218233D

 44 47  0  0  1  0  0  0  0  0999 V2000
   -3.4797    0.0673    1.3381 C   0  0  0  0  0  0  0  0  0  0  0  0
   -2.1191    0.1444    0.7373 C   0  0  0  0  0  0  0  0  0  0  0  0
   -1.6243    1.4117    0.4624 N   0  0  0  0  0  0  0  0  0  0  0  0
   -0.4223    1.3207   -0.0580 C   0  0  0  0  0  0  0  0  0  0  0  0
    0.1886   -0.2601   -0.2666 S   0  0  0  0  0  0  0  0  0  0  0  0
   -1.2627   -0.8992    0.4039 C   0  0  0  0  0  0  0  0  0  0  0  0
   -1.4264   -2.3829    0.5335 C   0  0  0  0  0  0  0  0  0  0  0  0
   -2.0569   -2.9944   -0.7200 C   0  0  0  0  0  0  0  0  0  0  0  0
   -2.2232   -4.4147   -0.5789 O   0  0  0  0  0  0  0  0  0  0  0  0
   -3.3464   -4.7731    0.0996 C   0  0  0  0  0  0  0  0  0  0  0  0
   -4.1004   -3.9734    0.6332 O   0  0  0  0  0  0  0  0  0  0  0  0
   -3.5648   -6.2784    0.0969 C   0  0  3  0  0  0  0  0  0  0  0  0
   -2.3681   -7.0231    0.7295 C   0  0  0  0  0  0  0  0  0  0  0  0
   -2.6341   -8.5385    0.7431 C   0  0  3  0  0  0  0  0  0  0  0  0
   -3.9007   -8.8246    1.5680 C   0  0  0  0  0  0  0  0  0  0  0  0
   -5.1079   -8.1076    0.9448 C   0  0  3  0  0  0  0  0  0  0  0  0
   -5.3074   -8.5978   -0.4982 C   0  0  0  0  0  0  0  0  0  0  0  0
   -4.0499   -8.3067   -1.3336 C   0  0  3  0  0  0  0  0  0  0  0  0
   -2.8452   -9.0251   -0.7014 C   0  0  0  0  0  0  0  0  0  0  0  0
   -3.7850   -6.7889   -1.3436 C   0  0  0  0  0  0  0  0  0  0  0  0
   -4.8353   -6.5983    0.9258 C   0  0  0  0  0  0  0  0  0  0  0  0
   -3.8866    1.0747    1.4883 H   0  0  0  0  0  0  0  0  0  0  0  0
   -3.4501   -0.4264    2.3136 H   0  0  0  0  0  0  0  0  0  0  0  0
   -4.1677   -0.4732    0.6817 H   0  0  0  0  0  0  0  0  0  0  0  0
    0.1461    2.1947   -0.3442 H   0  0  0  0  0  0  0  0  0  0  0  0
   -2.0261   -2.6186    1.4202 H   0  0  0  0  0  0  0  0  0  0  0  0
   -0.4574   -2.8667    0.7171 H   0  0  0  0  0  0  0  0  0  0  0  0
   -1.4185   -2.8282   -1.5957 H   0  0  0  0  0  0  0  0  0  0  0  0
   -3.0206   -2.5224   -0.9535 H   0  0  0  0  0  0  0  0  0  0  0  0
   -2.1927   -6.6614    1.7509 H   0  0  0  0  0  0  0  0  0  0  0  0
   -1.4464   -6.8200    0.1697 H   0  0  0  0  0  0  0  0  0  0  0  0
   -1.7794   -9.0601    1.1883 H   0  0  0  0  0  0  0  0  0  0  0  0
   -3.7580   -8.4868    2.6024 H   0  0  0  0  0  0  0  0  0  0  0  0
   -4.0879   -9.9043    1.6080 H   0  0  0  0  0  0  0  0  0  0  0  0
   -6.0084   -8.3126    1.5349 H   0  0  0  0  0  0  0  0  0  0  0  0
   -6.1774   -8.1016   -0.9455 H   0  0  0  0  0  0  0  0  0  0  0  0
   -5.5172   -9.6738   -0.5008 H   0  0  0  0  0  0  0  0  0  0  0  0
   -4.1969   -8.6600   -2.3604 H   0  0  0  0  0  0  0  0  0  0  0  0
   -1.9428   -8.8337   -1.2952 H   0  0  0  0  0  0  0  0  0  0  0  0
   -3.0105  -10.1092   -0.7114 H   0  0  0  0  0  0  0  0  0  0  0  0
   -4.6298   -6.2647   -1.8086 H   0  0  0  0  0  0  0  0  0  0  0  0
   -2.9078   -6.5738   -1.9680 H   0  0  0  0  0  0  0  0  0  0  0  0
   -4.7219   -6.2277    1.9539 H   0  0  0  0  0  0  0  0  0  0  0  0
   -5.7046   -6.0734    0.5063 H   0  0  0  0  0  0  0  0  0  0  0  0
  1  2  1  0  0  0  0
  1 22  1  0  0  0  0
  1 23  1  0  0  0  0
  1 24  1  0  0  0  0
  2  3  1  0  0  0  0
  2  6  2  0  0  0  0
  3  4  2  0  0  0  0
  4  5  1  0  0  0  0
  4 25  1  0  0  0  0
  5  6  1  0  0  0  0
  6  7  1  0  0  0  0
  7  8  1  0  0  0  0
  7 26  1  0  0  0  0
  7 27  1  0  0  0  0
  8  9  1  0  0  0  0
  8 28  1  0  0  0  0
  8 29  1  0  0  0  0
  9 10  1  0  0  0  0
 10 11  2  0  0  0  0
 10 12  1  0  0  0  0
 12 13  1  0  0  0  0
 12 20  1  0  0  0  0
 12 21  1  0  0  0  0
 13 14  1  0  0  0  0
 13 30  1  0  0  0  0
 13 31  1  0  0  0  0
 14 15  1  0  0  0  0
 14 19  1  0  0  0  0
 14 32  1  0  0  0  0
 15 16  1  0  0  0  0
 15 33  1  0  0  0  0
 15 34  1  0  0  0  0
 16 17  1  0  0  0  0
 16 21  1  0  0  0  0
 16 35  1  0  0  0  0
 17 18  1  0  0  0  0
 17 36  1  0  0  0  0
 17 37  1  0  0  0  0
 18 19  1  0  0  0  0
 18 20  1  0  0  0  0
 18 38  1  0  0  0  0
 19 39  1  0  0  0  0
 19 40  1  0  0  0  0
 20 41  1  0  0  0  0
 20 42  1  0  0  0  0
 21 43  1  0  0  0  0
 21 44  1  0  0  0  0
M  END
$$$$
CHEMBL3454460
 OpenBabel01072218233D

 32 33  0  0  0  0  0  0  0  0999 V2000
   -0.2205   -0.4837   -2.6246 C   0  0  0  0  0  0  0  0  0  0  0  0
   -0.1794   -0.1326   -1.1801 C   0  0  0  0  0  0  0  0  0  0  0  0
   -0.1117    1.2097   -0.8419 N   0  0  0  0  0  0  0  0  0  0  0  0
   -0.0763    1.3442    0.4638 C   0  0  0  0  0  0  0  0  0  0  0  0
   -0.1235   -0.1078    1.3663 S   0  0  0  0  0  0  0  0  0  0  0  0
   -0.2034   -1.0051   -0.1014 C   0  0  0  0  0  0  0  0  0  0  0  0
   -0.2824   -2.5075   -0.0634 C   0  0  0  0  0  0  0  0  0  0  0  0
   -1.7443   -2.9843    0.0455 C   0  0  0  0  0  0  0  0  0  0  0  0
   -1.9463   -4.4533    0.1507 N   0  0  0  0  0  0  0  0  0  0  0  0
   -1.3240   -4.9820    1.3723 C   0  0  0  0  0  0  0  0  0  0  0  0
   -3.4108   -4.7026    0.1664 C   0  0  0  0  0  0  0  0  0  0  0  0
   -3.8047   -6.1411    0.2162 C   0  0  0  0  0  0  0  0  0  0  0  0
   -3.5537   -7.2377   -0.5843 C   0  0  0  0  0  0  0  0  0  0  0  0
   -4.2746   -8.3203   -0.0187 C   0  0  0  0  0  0  0  0  0  0  0  0
   -4.9151   -7.8185    1.0912 C   0  0  0  0  0  0  0  0  0  0  0  0
   -6.0314   -8.7923    2.2245 Br  0  0  0  0  0  0  0  0  0  0  0  0
   -4.6313   -6.4987    1.2433 O   0  0  0  0  0  0  0  0  0  0  0  0
   -0.1591    0.4153   -3.2456 H   0  0  0  0  0  0  0  0  0  0  0  0
   -1.1537   -0.9997   -2.8684 H   0  0  0  0  0  0  0  0  0  0  0  0
    0.6209   -1.1325   -2.8871 H   0  0  0  0  0  0  0  0  0  0  0  0
   -0.0173    2.3108    0.9454 H   0  0  0  0  0  0  0  0  0  0  0  0
    0.3105   -2.8638    0.7867 H   0  0  0  0  0  0  0  0  0  0  0  0
    0.1803   -2.9280   -0.9641 H   0  0  0  0  0  0  0  0  0  0  0  0
   -2.2648   -2.6325   -0.8563 H   0  0  0  0  0  0  0  0  0  0  0  0
   -2.2283   -2.4840    0.8956 H   0  0  0  0  0  0  0  0  0  0  0  0
   -0.2358   -4.8691    1.3381 H   0  0  0  0  0  0  0  0  0  0  0  0
   -1.4912   -6.0595    1.4757 H   0  0  0  0  0  0  0  0  0  0  0  0
   -1.6980   -4.4872    2.2755 H   0  0  0  0  0  0  0  0  0  0  0  0
   -3.8485   -4.2922   -0.7531 H   0  0  0  0  0  0  0  0  0  0  0  0
   -3.8785   -4.1700    1.0053 H   0  0  0  0  0  0  0  0  0  0  0  0
   -2.9340   -7.2464   -1.4697 H   0  0  0  0  0  0  0  0  0  0  0  0
   -4.3260   -9.3377   -0.3813 H   0  0  0  0  0  0  0  0  0  0  0  0
  1  2  1  0  0  0  0
  1 18  1  0  0  0  0
  1 19  1  0  0  0  0
  1 20  1  0  0  0  0
  2  3  1  0  0  0  0
  2  6  2  0  0  0  0
  3  4  2  0  0  0  0
  4  5  1  0  0  0  0
  4 21  1  0  0  0  0
  5  6  1  0  0  0  0
  6  7  1  0  0  0  0
  7  8  1  0  0  0  0
  7 22  1  0  0  0  0
  7 23  1  0  0  0  0
  8  9  1  0  0  0  0
  8 24  1  0  0  0  0
  8 25  1  0  0  0  0
  9 10  1  0  0  0  0
  9 11  1  0  0  0  0
 10 26  1  0  0  0  0
 10 27  1  0  0  0  0
 10 28  1  0  0  0  0
 11 12  1  0  0  0  0
 11 29  1  0  0  0  0
 11 30  1  0  0  0  0
 12 13  2  0  0  0  0
 12 17  1  0  0  0  0
 13 14  1  0  0  0  0
 13 31  1  0  0  0  0
 14 15  2  0  0  0  0
 14 32  1  0  0  0  0
 15 16  1  0  0  0  0
 15 17  1  0  0  0  0
M  END
$$$$
CHEMBL1617558
 OpenBabel01072218233D

 30 31  0  0  0  0  0  0  0  0999 V2000
   -0.1739   -0.3055    2.4533 C   0  0  0  0  0  0  0  0  0  0  0  0
   -0.1422   -0.1301    0.9749 C   0  0  0  0  0  0  0  0  0  0  0  0
   -0.0202    1.1693    0.5061 N   0  0  0  0  0  0  0  0  0  0  0  0
   -0.0010    1.1778   -0.8002 C   0  0  0  0  0  0  0  0  0  0  0  0
   -0.1366   -0.3473   -1.5659 S   0  0  0  0  0  0  0  0  0  0  0  0
   -0.2214   -1.1007   -0.0192 C   0  0  0  0  0  0  0  0  0  0  0  0
   -0.3589   -2.5932    0.0584 C   0  0  0  0  0  0  0  0  0  0  0  0
   -1.8274   -3.0304    0.0612 C   0  0  0  0  0  0  0  0  0  0  0  0
   -1.9568   -4.4619    0.1474 O   0  0  0  0  0  0  0  0  0  0  0  0
   -1.8279   -4.9443    1.4046 C   0  0  0  0  0  0  0  0  0  0  0  0
   -1.5539   -4.2839    2.3981 O   0  0  0  0  0  0  0  0  0  0  0  0
   -1.9790   -6.4084    1.4476 C   0  0  0  0  0  0  0  0  0  0  0  0
   -2.8320   -7.0968    0.5799 C   0  0  0  0  0  0  0  0  0  0  0  0
   -2.9334   -8.4862    0.6753 C   0  0  0  0  0  0  0  0  0  0  0  0
   -2.1891   -9.1792    1.6334 C   0  0  0  0  0  0  0  0  0  0  0  0
   -1.3509   -8.4904    2.5090 C   0  0  0  0  0  0  0  0  0  0  0  0
   -1.2518   -7.1038    2.4224 C   0  0  0  0  0  0  0  0  0  0  0  0
   -0.0771    0.6644    2.9554 H   0  0  0  0  0  0  0  0  0  0  0  0
    0.6547   -0.9354    2.7917 H   0  0  0  0  0  0  0  0  0  0  0  0
   -1.1198   -0.7505    2.7745 H   0  0  0  0  0  0  0  0  0  0  0  0
    0.0905    2.0879   -1.3765 H   0  0  0  0  0  0  0  0  0  0  0  0
    0.1625   -2.9736    0.9434 H   0  0  0  0  0  0  0  0  0  0  0  0
    0.1511   -3.0713   -0.7904 H   0  0  0  0  0  0  0  0  0  0  0  0
   -2.3247   -2.7206   -0.8651 H   0  0  0  0  0  0  0  0  0  0  0  0
   -2.3820   -2.5595    0.8815 H   0  0  0  0  0  0  0  0  0  0  0  0
   -3.4225   -6.5639   -0.1607 H   0  0  0  0  0  0  0  0  0  0  0  0
   -3.5897   -9.0315    0.0014 H   0  0  0  0  0  0  0  0  0  0  0  0
   -2.2629  -10.2622    1.6986 H   0  0  0  0  0  0  0  0  0  0  0  0
   -0.7739   -9.0291    3.2555 H   0  0  0  0  0  0  0  0  0  0  0  0
   -0.6006   -6.5645    3.1090 H   0  0  0  0  0  0  0  0  0  0  0  0
  1  2  1  0  0  0  0
  1 18  1  0  0  0  0
  1 19  1  0  0  0  0
  1 20  1  0  0  0  0
  2  3  1  0  0  0  0
  2  6  2  0  0  0  0
  3  4  2  0  0  0  0
  4  5  1  0  0  0  0
  4 21  1  0  0  0  0
  5  6  1  0  0  0  0
  6  7  1  0  0  0  0
  7  8  1  0  0  0  0
  7 22  1  0  0  0  0
  7 23  1  0  0  0  0
  8  9  1  0  0  0  0
  8 24  1  0  0  0  0
  8 25  1  0  0  0  0
  9 10  1  0  0  0  0
 10 11  2  0  0  0  0
 10 12  1  0  0  0  0
 12 13  1  0  0  0  0
 12 17  2  0  0  0  0
 13 14  2  0  0  0  0
 13 26  1  0  0  0  0
 14 15  1  0  0  0  0
 14 27  1  0  0  0  0
 15 16  2  0  0  0  0
 15 28  1  0  0  0  0
 16 17  1  0  0  0  0
 16 29  1  0  0  0  0
 17 30  1  0  0  0  0
M  END
$$$$
CHEMBL4560094
 OpenBabel01072218233D

 35 35  0  0  1  0  0  0  0  0999 V2000
    1.2055   -0.9825   -1.1548 C   0  0  0  0  0  0  0  0  0  0  0  0
    3.0056   -0.8815   -1.2725 S   0  0  0  0  0  0  0  0  0  0  0  0
    3.4535   -1.8229    0.2283 C   0  0  0  0  0  0  0  0  0  0  0  0
    4.9756   -1.8610    0.3390 C   0  0  0  0  0  0  0  0  0  0  0  0
    5.4783   -2.6237    1.5707 C   0  0  3  0  0  0  0  0  0  0  0  0
    5.0489   -3.9851    1.5305 O   0  0  0  0  0  0  0  0  0  0  0  0
    7.0124   -2.5128    1.6616 C   0  0  0  0  0  0  0  0  0  0  0  0
    7.6408   -1.5402    1.2449 O   0  0  0  0  0  0  0  0  0  0  0  0
    7.6332   -3.5812    2.2700 N   0  0  0  0  0  0  0  0  0  0  0  0
    9.0806   -3.6642    2.3546 C   0  0  0  0  0  0  0  0  0  0  0  0
    9.6400   -3.0127    3.6221 C   0  0  0  0  0  0  0  0  0  0  0  0
   11.1380   -3.0870    3.6665 C   0  0  0  0  0  0  0  0  0  0  0  0
   11.9166   -4.4528    4.3660 S   0  0  0  0  0  0  0  0  0  0  0  0
   13.4360   -3.7555    4.0095 C   0  0  0  0  0  0  0  0  0  0  0  0
   13.4088   -2.5867    3.4099 N   0  0  0  0  0  0  0  0  0  0  0  0
   12.0934   -2.1885    3.2121 C   0  0  0  0  0  0  0  0  0  0  0  0
   11.8663   -0.8772    2.5455 C   0  0  0  0  0  0  0  0  0  0  0  0
    0.7636   -0.4619   -2.0093 H   0  0  0  0  0  0  0  0  0  0  0  0
    0.8550   -0.5028   -0.2379 H   0  0  0  0  0  0  0  0  0  0  0  0
    0.8797   -2.0254   -1.1781 H   0  0  0  0  0  0  0  0  0  0  0  0
    3.0423   -2.8336    0.1477 H   0  0  0  0  0  0  0  0  0  0  0  0
    3.0193   -1.3296    1.1036 H   0  0  0  0  0  0  0  0  0  0  0  0
    5.3635   -0.8341    0.3696 H   0  0  0  0  0  0  0  0  0  0  0  0
    5.3913   -2.3365   -0.5601 H   0  0  0  0  0  0  0  0  0  0  0  0
    5.0680   -2.1774    2.4840 H   0  0  0  0  0  0  0  0  0  0  0  0
    5.4021   -4.3694    0.7070 H   0  0  0  0  0  0  0  0  0  0  0  0
    7.0479   -4.3175    2.6548 H   0  0  0  0  0  0  0  0  0  0  0  0
    9.5105   -3.1816    1.4681 H   0  0  0  0  0  0  0  0  0  0  0  0
    9.3452   -4.7262    2.3064 H   0  0  0  0  0  0  0  0  0  0  0  0
    9.2102   -3.5039    4.5048 H   0  0  0  0  0  0  0  0  0  0  0  0
    9.3208   -1.9646    3.6800 H   0  0  0  0  0  0  0  0  0  0  0  0
   14.3636   -4.2511    4.2618 H   0  0  0  0  0  0  0  0  0  0  0  0
   12.8123   -0.3411    2.4137 H   0  0  0  0  0  0  0  0  0  0  0  0
   11.2052   -0.2444    3.1455 H   0  0  0  0  0  0  0  0  0  0  0  0
   11.4196   -1.0207    1.5571 H   0  0  0  0  0  0  0  0  0  0  0  0
  1  2  1  0  0  0  0
  1 18  1  0  0  0  0
  1 19  1  0  0  0  0
  1 20  1  0  0  0  0
  2  3  1  0  0  0  0
  3  4  1  0  0  0  0
  3 21  1  0  0  0  0
  3 22  1  0  0  0  0
  4  5  1  0  0  0  0
  4 23  1  0  0  0  0
  4 24  1  0  0  0  0
  5  6  1  0  0  0  0
  5  7  1  0  0  0  0
  5 25  1  0  0  0  0
  6 26  1  0  0  0  0
  7  8  2  0  0  0  0
  7  9  1  0  0  0  0
  9 10  1  0  0  0  0
  9 27  1  0  0  0  0
 10 11  1  0  0  0  0
 10 28  1  0  0  0  0
 10 29  1  0  0  0  0
 11 12  1  0  0  0  0
 11 30  1  0  0  0  0
 11 31  1  0  0  0  0
 12 13  1  0  0  0  0
 12 16  2  0  0  0  0
 13 14  1  0  0  0  0
 14 15  2  0  0  0  0
 14 32  1  0  0  0  0
 15 16  1  0  0  0  0
 16 17  1  0  0  0  0
 17 33  1  0  0  0  0
 17 34  1  0  0  0  0
 17 35  1  0  0  0  0
M  END
$$$$
CHEMBL2104128
 OpenBabel01072218233D

 20 20  0  0  0  0  0  0  0  0999 V2000
   -2.6035   -0.1294   -0.0077 C   0  0  0  0  0  0  0  0  0  0  0  0
   -1.1209   -0.0067   -0.0019 C   0  0  0  0  0  0  0  0  0  0  0  0
   -0.5763    1.2689   -0.0000 N   0  0  0  0  0  0  0  0  0  0  0  0
    0.7336    1.1956   -0.0284 C   0  0  0  0  0  0  0  0  0  0  0  0
    1.3974   -0.3791   -0.0647 S   0  0  0  0  0  0  0  0  0  0  0  0
   -0.1911   -1.0383   -0.0024 C   0  0  0  0  0  0  0  0  0  0  0  0
   -0.4071   -2.5232    0.0017 C   0  0  0  0  0  0  0  0  0  0  0  0
    0.1718   -3.2335    1.2322 C   0  0  0  0  0  0  0  0  0  0  0  0
   -0.4152   -2.7947    2.5706 C   0  0  0  0  0  0  0  0  0  0  0  0
   -2.1464   -3.1829    2.6945 Cl  0  0  0  0  0  0  0  0  0  0  0  0
   -3.0764    0.8578   -0.0289 H   0  0  0  0  0  0  0  0  0  0  0  0
   -2.9527   -0.6517    0.8874 H   0  0  0  0  0  0  0  0  0  0  0  0
   -2.9384   -0.6813   -0.8918 H   0  0  0  0  0  0  0  0  0  0  0  0
    1.3610    2.0773   -0.0332 H   0  0  0  0  0  0  0  0  0  0  0  0
    0.0599   -2.9462   -0.8974 H   0  0  0  0  0  0  0  0  0  0  0  0
   -1.4760   -2.7474   -0.0893 H   0  0  0  0  0  0  0  0  0  0  0  0
    1.2579   -3.0835    1.2682 H   0  0  0  0  0  0  0  0  0  0  0  0
    0.0232   -4.3142    1.1111 H   0  0  0  0  0  0  0  0  0  0  0  0
   -0.2938   -1.7213    2.7391 H   0  0  0  0  0  0  0  0  0  0  0  0
    0.0903   -3.3204    3.3868 H   0  0  0  0  0  0  0  0  0  0  0  0
  1  2  1  0  0  0  0
  1 11  1  0  0  0  0
  1 12  1  0  0  0  0
  1 13  1  0  0  0  0
  2  3  1  0  0  0  0
  2  6  2  0  0  0  0
  3  4  2  0  0  0  0
  4  5  1  0  0  0  0
  4 14  1  0  0  0  0
  5  6  1  0  0  0  0
  6  7  1  0  0  0  0
  7  8  1  0  0  0  0
  7 15  1  0  0  0  0
  7 16  1  0  0  0  0
  8  9  1  0  0  0  0
  8 17  1  0  0  0  0
  8 18  1  0  0  0  0
  9 10  1  0  0  0  0
  9 19  1  0  0  0  0
  9 20  1  0  0  0  0
M  END
$$$$
CHEMBL2172682
 OpenBabel01072218233D

 23 24  0  0  0  0  0  0  0  0999 V2000
   -0.1815   -0.3829   -2.4430 C   0  0  0  0  0  0  0  0  0  0  0  0
   -0.1611   -0.1109   -0.9804 C   0  0  0  0  0  0  0  0  0  0  0  0
   -0.0686    1.2100   -0.5696 N   0  0  0  0  0  0  0  0  0  0  0  0
   -0.0396    1.2715    0.7414 C   0  0  0  0  0  0  0  0  0  0  0  0
   -0.1457   -0.2242    1.5646 S   0  0  0  0  0  0  0  0  0  0  0  0
   -0.2185   -1.0382    0.0508 C   0  0  0  0  0  0  0  0  0  0  0  0
   -0.3092   -2.5350   -0.0002 C   0  0  0  0  0  0  0  0  0  0  0  0
   -1.7587   -3.0175    0.0318 C   0  0  0  0  0  0  0  0  0  0  0  0
   -1.8624   -4.4610    0.0452 N   0  0  0  0  0  0  0  0  0  0  0  0
   -2.4695   -5.2547    0.9724 C   0  0  0  0  0  0  0  0  0  0  0  0
   -2.3032   -6.5240    0.4750 C   0  0  0  0  0  0  0  0  0  0  0  0
   -1.6206   -6.4644   -0.7072 N   0  0  0  0  0  0  0  0  0  0  0  0
   -1.3627   -5.1894   -0.9678 N   0  0  0  0  0  0  0  0  0  0  0  0
   -0.1261    0.5511   -3.0145 H   0  0  0  0  0  0  0  0  0  0  0  0
   -1.1051   -0.8960   -2.7265 H   0  0  0  0  0  0  0  0  0  0  0  0
    0.6713   -1.0049   -2.7305 H   0  0  0  0  0  0  0  0  0  0  0  0
    0.0453    2.2104    1.2728 H   0  0  0  0  0  0  0  0  0  0  0  0
    0.2484   -2.9732    0.8379 H   0  0  0  0  0  0  0  0  0  0  0  0
    0.1893   -2.8948   -0.9091 H   0  0  0  0  0  0  0  0  0  0  0  0
   -2.3146   -2.6658   -0.8446 H   0  0  0  0  0  0  0  0  0  0  0  0
   -2.2761   -2.6427    0.9235 H   0  0  0  0  0  0  0  0  0  0  0  0
   -2.9510   -4.8722    1.8594 H   0  0  0  0  0  0  0  0  0  0  0  0
   -2.6342   -7.4657    0.8900 H   0  0  0  0  0  0  0  0  0  0  0  0
  1  2  1  0  0  0  0
  1 14  1  0  0  0  0
  1 15  1  0  0  0  0
  1 16  1  0  0  0  0
  2  3  1  0  0  0  0
  2  6  2  0  0  0  0
  3  4  2  0  0  0  0
  4  5  1  0  0  0  0
  4 17  1  0  0  0  0
  5  6  1  0  0  0  0
  6  7  1  0  0  0  0
  7  8  1  0  0  0  0
  7 18  1  0  0  0  0
  7 19  1  0  0  0  0
  8  9  1  0  0  0  0
  8 20  1  0  0  0  0
  8 21  1  0  0  0  0
  9 10  1  0  0  0  0
  9 13  1  0  0  0  0
 10 11  2  0  0  0  0
 10 22  1  0  0  0  0
 11 12  1  0  0  0  0
 11 23  1  0  0  0  0
 12 13  2  0  0  0  0
M  END
$$$$
CHEMBL315795
 OpenBabel01072218233D

 17 17  0  0  0  0  0  0  0  0999 V2000
   -2.5911   -0.1981    0.0116 C   0  0  0  0  0  0  0  0  0  0  0  0
   -1.1113   -0.0507    0.0305 C   0  0  0  0  0  0  0  0  0  0  0  0
   -0.5902    1.2335    0.0476 N   0  0  0  0  0  0  0  0  0  0  0  0
    0.7229    1.1846    0.0218 C   0  0  0  0  0  0  0  0  0  0  0  0
    1.4128   -0.3783   -0.0238 S   0  0  0  0  0  0  0  0  0  0  0  0
   -0.1650   -1.0656    0.0216 C   0  0  0  0  0  0  0  0  0  0  0  0
   -0.3522   -2.5556   -0.0045 C   0  0  0  0  0  0  0  0  0  0  0  0
    0.2423   -3.2486    1.2182 C   0  0  0  0  0  0  0  0  0  0  0  0
   -0.0164   -5.0093    1.1210 Cl  0  0  0  0  0  0  0  0  0  0  0  0
   -3.0818    0.7810    0.0029 H   0  0  0  0  0  0  0  0  0  0  0  0
   -2.9367   -0.7423    0.8955 H   0  0  0  0  0  0  0  0  0  0  0  0
   -2.9101   -0.7412   -0.8834 H   0  0  0  0  0  0  0  0  0  0  0  0
    1.3336    2.0771    0.0234 H   0  0  0  0  0  0  0  0  0  0  0  0
    0.0986   -2.9542   -0.9223 H   0  0  0  0  0  0  0  0  0  0  0  0
   -1.4236   -2.7860   -0.0615 H   0  0  0  0  0  0  0  0  0  0  0  0
   -0.2226   -2.8949    2.1436 H   0  0  0  0  0  0  0  0  0  0  0  0
    1.3224   -3.0884    1.2955 H   0  0  0  0  0  0  0  0  0  0  0  0
  1  2  1  0  0  0  0
  1 10  1  0  0  0  0
  1 11  1  0  0  0  0
  1 12  1  0  0  0  0
  2  3  1  0  0  0  0
  2  6  2  0  0  0  0
  3  4  2  0  0  0  0
  4  5  1  0  0  0  0
  4 13  1  0  0  0  0
  5  6  1  0  0  0  0
  6  7  1  0  0  0  0
  7  8  1  0  0  0  0
  7 14  1  0  0  0  0
  7 15  1  0  0  0  0
  8  9  1  0  0  0  0
  8 16  1  0  0  0  0
  8 17  1  0  0  0  0
M  END
$$$$
CHEMBL4575169
 OpenBabel01072218233D

 31 32  0  0  0  0  0  0  0  0999 V2000
   -0.1626   -0.3963    2.4787 C   0  0  0  0  0  0  0  0  0  0  0  0
   -0.1316   -0.1449    1.0129 C   0  0  0  0  0  0  0  0  0  0  0  0
    0.0051    1.1671    0.5839 N   0  0  0  0  0  0  0  0  0  0  0  0
    0.0127    1.2096   -0.7281 C   0  0  0  0  0  0  0  0  0  0  0  0
   -0.1366   -0.2933   -1.5300 S   0  0  0  0  0  0  0  0  0  0  0  0
   -0.2282   -1.0838   -0.0047 C   0  0  0  0  0  0  0  0  0  0  0  0
   -0.3922   -2.5729    0.0656 C   0  0  0  0  0  0  0  0  0  0  0  0
   -1.8689   -2.9719    0.0530 C   0  0  0  0  0  0  0  0  0  0  0  0
   -2.0465   -4.4877    0.0394 C   0  0  0  0  0  0  0  0  0  0  0  0
   -3.4498   -4.8479    0.0518 N   0  0  0  0  0  0  0  0  0  0  0  0
   -4.1530   -4.9713    1.2316 C   0  0  0  0  0  0  0  0  0  0  0  0
   -3.6240   -4.8531    2.3330 O   0  0  0  0  0  0  0  0  0  0  0  0
   -5.5741   -5.2409    1.0905 C   0  0  0  0  0  0  0  0  0  0  0  0
   -6.5058   -5.3913    2.1463 C   0  0  0  0  0  0  0  0  0  0  0  0
   -7.7467   -5.6352    1.7168 N   0  0  0  0  0  0  0  0  0  0  0  0
   -7.6208   -5.6456    0.3824 N   0  0  0  0  0  0  0  0  0  0  0  0
   -6.3433   -5.4138   -0.0464 C   0  0  0  0  0  0  0  0  0  0  0  0
   -0.0563    0.5407    3.0358 H   0  0  0  0  0  0  0  0  0  0  0  0
    0.6579   -1.0574    2.7736 H   0  0  0  0  0  0  0  0  0  0  0  0
   -1.1106   -0.8572    2.7714 H   0  0  0  0  0  0  0  0  0  0  0  0
    0.1083    2.1388   -1.2741 H   0  0  0  0  0  0  0  0  0  0  0  0
    0.0882   -2.9535    0.9753 H   0  0  0  0  0  0  0  0  0  0  0  0
    0.1291   -3.0459   -0.7767 H   0  0  0  0  0  0  0  0  0  0  0  0
   -2.3689   -2.5469   -0.8271 H   0  0  0  0  0  0  0  0  0  0  0  0
   -2.3754   -2.5444    0.9277 H   0  0  0  0  0  0  0  0  0  0  0  0
   -1.5491   -4.9420    0.9037 H   0  0  0  0  0  0  0  0  0  0  0  0
   -1.6127   -4.9198   -0.8684 H   0  0  0  0  0  0  0  0  0  0  0  0
   -3.9544   -4.8552   -0.8221 H   0  0  0  0  0  0  0  0  0  0  0  0
   -6.3168   -5.3305    3.2118 H   0  0  0  0  0  0  0  0  0  0  0  0
   -8.4512   -5.8196   -0.1752 H   0  0  0  0  0  0  0  0  0  0  0  0
   -6.1130   -5.4004   -1.1003 H   0  0  0  0  0  0  0  0  0  0  0  0
  1  2  1  0  0  0  0
  1 18  1  0  0  0  0
  1 19  1  0  0  0  0
  1 20  1  0  0  0  0
  2  3  1  0  0  0  0
  2  6  2  0  0  0  0
  3  4  2  0  0  0  0
  4  5  1  0  0  0  0
  4 21  1  0  0  0  0
  5  6  1  0  0  0  0
  6  7  1  0  0  0  0
  7  8  1  0  0  0  0
  7 22  1  0  0  0  0
  7 23  1  0  0  0  0
  8  9  1  0  0  0  0
  8 24  1  0  0  0  0
  8 25  1  0  0  0  0
  9 10  1  0  0  0  0
  9 26  1  0  0  0  0
  9 27  1  0  0  0  0
 10 11  1  0  0  0  0
 10 28  1  0  0  0  0
 11 12  2  0  0  0  0
 11 13  1  0  0  0  0
 13 14  1  0  0  0  0
 13 17  2  0  0  0  0
 14 15  2  0  0  0  0
 14 29  1  0  0  0  0
 15 16  1  0  0  0  0
 16 17  1  0  0  0  0
 16 30  1  0  0  0  0
 17 31  1  0  0  0  0
M  END
$$$$
CHEMBL1438876
 OpenBabel01072218233D

 35 37  0  0  0  0  0  0  0  0999 V2000
   -4.3878   -0.6940    2.5735 C   0  0  0  0  0  0  0  0  0  0  0  0
   -3.0633   -0.9191    3.2148 C   0  0  0  0  0  0  0  0  0  0  0  0
   -2.5372    0.1033    3.9904 N   0  0  0  0  0  0  0  0  0  0  0  0
   -1.3803   -0.2638    4.4899 C   0  0  0  0  0  0  0  0  0  0  0  0
   -0.8386   -1.8279    4.0608 S   0  0  0  0  0  0  0  0  0  0  0  0
   -2.2727   -2.0575    3.1400 C   0  0  0  0  0  0  0  0  0  0  0  0
   -2.5173   -3.3587    2.4336 C   0  0  0  0  0  0  0  0  0  0  0  0
   -1.9795   -3.3402    1.0005 C   0  0  0  0  0  0  0  0  0  0  0  0
   -2.1607   -4.9516    0.1640 S   0  0  0  0  0  0  0  0  0  0  0  0
   -3.8859   -5.1528    0.1501 C   0  0  0  0  0  0  0  0  0  0  0  0
   -4.7204   -4.1333    0.1293 N   0  0  0  0  0  0  0  0  0  0  0  0
   -5.9884   -4.6250   -0.0092 N   0  0  0  0  0  0  0  0  0  0  0  0
   -5.8921   -5.9294   -0.0817 C   0  0  0  0  0  0  0  0  0  0  0  0
   -6.9653   -6.6980   -0.1440 O   0  0  0  0  0  0  0  0  0  0  0  0
   -4.5766   -6.3551    0.0327 N   0  0  0  0  0  0  0  0  0  0  0  0
   -4.1138   -7.7064    0.0569 C   0  0  0  0  0  0  0  0  0  0  0  0
   -4.8458   -8.7129   -0.5927 C   0  0  0  0  0  0  0  0  0  0  0  0
   -4.4037  -10.0400   -0.5769 C   0  0  0  0  0  0  0  0  0  0  0  0
   -3.2317  -10.3794    0.0928 C   0  0  0  0  0  0  0  0  0  0  0  0
   -2.5064   -9.3944    0.7553 C   0  0  0  0  0  0  0  0  0  0  0  0
   -2.9459   -8.0672    0.7437 C   0  0  0  0  0  0  0  0  0  0  0  0
   -4.7773    0.2979    2.8302 H   0  0  0  0  0  0  0  0  0  0  0  0
   -5.1140   -1.4376    2.9141 H   0  0  0  0  0  0  0  0  0  0  0  0
   -4.3048   -0.7516    1.4845 H   0  0  0  0  0  0  0  0  0  0  0  0
   -0.7997    0.3816    5.1357 H   0  0  0  0  0  0  0  0  0  0  0  0
   -3.5949   -3.5572    2.4449 H   0  0  0  0  0  0  0  0  0  0  0  0
   -2.0511   -4.1764    2.9991 H   0  0  0  0  0  0  0  0  0  0  0  0
   -0.9063   -3.1162    1.0099 H   0  0  0  0  0  0  0  0  0  0  0  0
   -2.4596   -2.5599    0.4007 H   0  0  0  0  0  0  0  0  0  0  0  0
   -7.6918   -6.0467   -0.1272 H   0  0  0  0  0  0  0  0  0  0  0  0
   -5.7522   -8.4945   -1.1525 H   0  0  0  0  0  0  0  0  0  0  0  0
   -4.9741  -10.8069   -1.0933 H   0  0  0  0  0  0  0  0  0  0  0  0
   -2.8891  -11.4108    0.1048 H   0  0  0  0  0  0  0  0  0  0  0  0
   -1.5996   -9.6594    1.2938 H   0  0  0  0  0  0  0  0  0  0  0  0
   -2.3709   -7.3582    1.3277 H   0  0  0  0  0  0  0  0  0  0  0  0
  1  2  1  0  0  0  0
  1 22  1  0  0  0  0
  1 23  1  0  0  0  0
  1 24  1  0  0  0  0
  2  3  1  0  0  0  0
  2  6  2  0  0  0  0
  3  4  2  0  0  0  0
  4  5  1  0  0  0  0
  4 25  1  0  0  0  0
  5  6  1  0  0  0  0
  6  7  1  0  0  0  0
  7  8  1  0  0  0  0
  7 26  1  0  0  0  0
  7 27  1  0  0  0  0
  8  9  1  0  0  0  0
  8 28  1  0  0  0  0
  8 29  1  0  0  0  0
  9 10  1  0  0  0  0
 10 11  2  0  0  0  0
 10 15  1  0  0  0  0
 11 12  1  0  0  0  0
 12 13  2  0  0  0  0
 13 14  1  0  0  0  0
 13 15  1  0  0  0  0
 14 30  1  0  0  0  0
 15 16  1  0  0  0  0
 16 17  1  0  0  0  0
 16 21  2  0  0  0  0
 17 18  2  0  0  0  0
 17 31  1  0  0  0  0
 18 19  1  0  0  0  0
 18 32  1  0  0  0  0
 19 20  2  0  0  0  0
 19 33  1  0  0  0  0
 20 21  1  0  0  0  0
 20 34  1  0  0  0  0
 21 35  1  0  0  0  0
M  END
$$$$
CHEMBL4550384
 OpenBabel01072218233D

 32 33  0  0  0  0  0  0  0  0999 V2000
   -0.1745   -0.3647    2.4693 C   0  0  0  0  0  0  0  0  0  0  0  0
   -0.1488   -0.1321    0.9994 C   0  0  0  0  0  0  0  0  0  0  0  0
   -0.0148    1.1770    0.5602 N   0  0  0  0  0  0  0  0  0  0  0  0
   -0.0084    1.2093   -0.7521 C   0  0  0  0  0  0  0  0  0  0  0  0
   -0.1556   -0.2995   -1.5419 S   0  0  0  0  0  0  0  0  0  0  0  0
   -0.2397   -1.0805   -0.0102 C   0  0  0  0  0  0  0  0  0  0  0  0
   -0.3772   -2.5738    0.0655 C   0  0  0  0  0  0  0  0  0  0  0  0
   -1.8445   -3.0126    0.0654 C   0  0  0  0  0  0  0  0  0  0  0  0
   -2.0070   -4.5336    0.0644 C   0  0  0  0  0  0  0  0  0  0  0  0
   -1.4802   -5.1572    1.2568 N   0  0  0  0  0  0  0  0  0  0  0  0
   -2.1899   -5.2112    2.4409 C   0  0  0  0  0  0  0  0  0  0  0  0
   -3.3245   -4.7665    2.5766 O   0  0  0  0  0  0  0  0  0  0  0  0
   -1.4744   -5.8525    3.5775 C   0  0  0  0  0  0  0  0  0  0  0  0
   -2.1119   -5.9895    4.8027 C   0  0  0  0  0  0  0  0  0  0  0  0
   -1.5047   -6.5625    5.8746 N   0  0  0  0  0  0  0  0  0  0  0  0
   -0.2372   -6.9861    5.6628 C   0  0  0  0  0  0  0  0  0  0  0  0
    0.4013   -6.8453    4.4381 C   0  0  0  0  0  0  0  0  0  0  0  0
   -0.1944   -6.2784    3.3608 N   0  0  0  0  0  0  0  0  0  0  0  0
   -0.0788    0.5819    3.0128 H   0  0  0  0  0  0  0  0  0  0  0  0
    0.6554   -1.0095    2.7726 H   0  0  0  0  0  0  0  0  0  0  0  0
   -1.1162   -0.8322    2.7717 H   0  0  0  0  0  0  0  0  0  0  0  0
    0.0862    2.1345   -1.3050 H   0  0  0  0  0  0  0  0  0  0  0  0
    0.1269   -2.9365    0.9691 H   0  0  0  0  0  0  0  0  0  0  0  0
    0.1445   -3.0375   -0.7820 H   0  0  0  0  0  0  0  0  0  0  0  0
   -2.3470   -2.6158   -0.8259 H   0  0  0  0  0  0  0  0  0  0  0  0
   -2.3590   -2.5819    0.9331 H   0  0  0  0  0  0  0  0  0  0  0  0
   -1.5013   -4.9827   -0.7968 H   0  0  0  0  0  0  0  0  0  0  0  0
   -3.0733   -4.7793   -0.0094 H   0  0  0  0  0  0  0  0  0  0  0  0
   -0.5464   -5.5612    1.2646 H   0  0  0  0  0  0  0  0  0  0  0  0
   -3.1286   -5.6453    4.9615 H   0  0  0  0  0  0  0  0  0  0  0  0
    0.2561   -7.4475    6.5116 H   0  0  0  0  0  0  0  0  0  0  0  0
    1.4198   -7.1902    4.2956 H   0  0  0  0  0  0  0  0  0  0  0  0
  1  2  1  0  0  0  0
  1 19  1  0  0  0  0
  1 20  1  0  0  0  0
  1 21  1  0  0  0  0
  2  3  1  0  0  0  0
  2  6  2  0  0  0  0
  3  4  2  0  0  0  0
  4  5  1  0  0  0  0
  4 22  1  0  0  0  0
  5  6  1  0  0  0  0
  6  7  1  0  0  0  0
  7  8  1  0  0  0  0
  7 23  1  0  0  0  0
  7 24  1  0  0  0  0
  8  9  1  0  0  0  0
  8 25  1  0  0  0  0
  8 26  1  0  0  0  0
  9 10  1  0  0  0  0
  9 27  1  0  0  0  0
  9 28  1  0  0  0  0
 10 11  1  0  0  0  0
 10 29  1  0  0  0  0
 11 12  2  0  0  0  0
 11 13  1  0  0  0  0
 13 14  1  0  0  0  0
 13 18  2  0  0  0  0
 14 15  2  0  0  0  0
 14 30  1  0  0  0  0
 15 16  1  0  0  0  0
 16 17  2  0  0  0  0
 16 31  1  0  0  0  0
 17 18  1  0  0  0  0
 17 32  1  0  0  0  0
M  END
$$$$
CHEMBL3275138
 OpenBabel01072218233D

 17 17  0  0  0  0  0  0  0  0999 V2000
    1.1460    0.5212   -0.6260 C   0  0  0  0  0  0  0  0  0  0  0  0
    2.4519   -0.0088   -0.0524 C   0  0  0  0  0  0  0  0  0  0  0  0
    2.9302   -1.2246   -0.7816 C   0  0  0  0  0  0  0  0  0  0  0  0
    2.4157   -2.7935   -0.3084 S   0  0  0  0  0  0  0  0  0  0  0  0
    3.3617   -3.4679   -1.5643 C   0  0  0  0  0  0  0  0  0  0  0  0
    4.0356   -2.6151   -2.3024 N   0  0  0  0  0  0  0  0  0  0  0  0
    3.7986   -1.3234   -1.8593 C   0  0  0  0  0  0  0  0  0  0  0  0
    4.4807   -0.2035   -2.5608 C   0  0  0  0  0  0  0  0  0  0  0  0
    0.8575    1.4459   -0.1164 H   0  0  0  0  0  0  0  0  0  0  0  0
    0.3338   -0.2019   -0.4981 H   0  0  0  0  0  0  0  0  0  0  0  0
    1.2381    0.7373   -1.6961 H   0  0  0  0  0  0  0  0  0  0  0  0
    2.3203   -0.2278    1.0145 H   0  0  0  0  0  0  0  0  0  0  0  0
    3.2141    0.7775   -0.1120 H   0  0  0  0  0  0  0  0  0  0  0  0
    3.4002   -4.5349   -1.7358 H   0  0  0  0  0  0  0  0  0  0  0  0
    5.0853   -0.5730   -3.3948 H   0  0  0  0  0  0  0  0  0  0  0  0
    5.1433    0.3304   -1.8726 H   0  0  0  0  0  0  0  0  0  0  0  0
    3.7473    0.5036   -2.9604 H   0  0  0  0  0  0  0  0  0  0  0  0
  1  2  1  0  0  0  0
  1  9  1  0  0  0  0
  1 10  1  0  0  0  0
  1 11  1  0  0  0  0
  2  3  1  0  0  0  0
  2 12  1  0  0  0  0
  2 13  1  0  0  0  0
  3  4  1  0  0  0  0
  3  7  2  0  0  0  0
  4  5  1  0  0  0  0
  5  6  2  0  0  0  0
  5 14  1  0  0  0  0
  6  7  1  0  0  0  0
  7  8  1  0  0  0  0
  8 15  1  0  0  0  0
  8 16  1  0  0  0  0
  8 17  1  0  0  0  0
M  END
$$$$
CHEMBL3228123
 OpenBabel01072218233D

 18 18  0  0  0  0  0  0  0  0999 V2000
    2.5459   -2.5135   -1.9761 O   0  0  0  0  0  0  0  0  0  0  0  0
    2.2622   -1.2737   -1.3386 C   0  0  0  0  0  0  0  0  0  0  0  0
    2.8566   -1.2460    0.0693 C   0  0  0  0  0  0  0  0  0  0  0  0
    4.3530   -1.3913    0.0581 C   0  0  0  0  0  0  0  0  0  0  0  0
    5.3491    0.0108    0.0009 S   0  0  0  0  0  0  0  0  0  0  0  0
    6.7380   -0.9837    0.0197 C   0  0  0  0  0  0  0  0  0  0  0  0
    6.5211   -2.2746    0.0663 N   0  0  0  0  0  0  0  0  0  0  0  0
    5.1397   -2.5394    0.0855 C   0  0  0  0  0  0  0  0  0  0  0  0
    4.6735   -3.9759    0.1416 C   0  0  0  0  0  0  0  0  0  0  0  0
    3.3250   -4.1117    0.2461 F   0  0  0  0  0  0  0  0  0  0  0  0
    5.0572   -4.6870   -0.9517 F   0  0  0  0  0  0  0  0  0  0  0  0
    5.1908   -4.6200    1.2249 F   0  0  0  0  0  0  0  0  0  0  0  0
    2.1407   -2.4843   -2.8608 H   0  0  0  0  0  0  0  0  0  0  0  0
    1.1740   -1.1633   -1.2811 H   0  0  0  0  0  0  0  0  0  0  0  0
    2.6653   -0.4642   -1.9568 H   0  0  0  0  0  0  0  0  0  0  0  0
    2.4197   -2.0501    0.6710 H   0  0  0  0  0  0  0  0  0  0  0  0
    2.5709   -0.3077    0.5600 H   0  0  0  0  0  0  0  0  0  0  0  0
    7.7380   -0.5654   -0.0036 H   0  0  0  0  0  0  0  0  0  0  0  0
  1  2  1  0  0  0  0
  1 13  1  0  0  0  0
  2  3  1  0  0  0  0
  2 14  1  0  0  0  0
  2 15  1  0  0  0  0
  3  4  1  0  0  0  0
  3 16  1  0  0  0  0
  3 17  1  0  0  0  0
  4  5  1  0  0  0  0
  4  8  2  0  0  0  0
  5  6  1  0  0  0  0
  6  7  2  0  0  0  0
  6 18  1  0  0  0  0
  7  8  1  0  0  0  0
  8  9  1  0  0  0  0
  9 10  1  0  0  0  0
  9 11  1  0  0  0  0
  9 12  1  0  0  0  0
M  END
$$$$
CHEMBL3480938
 OpenBabel01072218233D

 48 50  0  0  0  0  0  0  0  0999 V2000
    0.1764    1.0650    2.4058 C   0  0  0  0  0  0  0  0  0  0  0  0
    0.1233    0.2584    1.1433 C   0  0  0  0  0  0  0  0  0  0  0  0
    0.0684   -1.1318    1.1906 C   0  0  0  0  0  0  0  0  0  0  0  0
    0.0176   -1.8796    0.0085 C   0  0  0  0  0  0  0  0  0  0  0  0
   -0.0699   -3.2565    0.0422 N   0  0  0  0  0  0  0  0  0  0  0  0
   -0.6721   -4.0371   -1.0474 C   0  0  0  0  0  0  0  0  0  0  0  0
   -1.6084   -5.1108   -0.4586 C   0  0  0  0  0  0  0  0  0  0  0  0
   -0.9419   -5.9169    0.5776 N   0  0  0  0  0  0  0  0  0  0  0  0
   -0.9938   -7.2922    0.7022 C   0  0  0  0  0  0  0  0  0  0  0  0
   -0.4261   -7.8791    1.6260 O   0  0  0  0  0  0  0  0  0  0  0  0
   -1.7186   -8.0788   -0.3768 C   0  0  0  0  0  0  0  0  0  0  0  0
   -2.1828   -9.4309    0.1609 C   0  0  0  0  0  0  0  0  0  0  0  0
   -2.8739  -10.2440   -0.8911 C   0  0  0  0  0  0  0  0  0  0  0  0
   -4.5631  -10.0927   -1.1626 S   0  0  0  0  0  0  0  0  0  0  0  0
   -4.4624  -11.3042   -2.3683 C   0  0  0  0  0  0  0  0  0  0  0  0
   -3.2654  -11.7956   -2.5946 N   0  0  0  0  0  0  0  0  0  0  0  0
   -2.3465  -11.1993   -1.7460 C   0  0  0  0  0  0  0  0  0  0  0  0
   -0.9269  -11.6345   -1.8179 C   0  0  0  0  0  0  0  0  0  0  0  0
   -0.2964   -5.1218    1.6342 C   0  0  0  0  0  0  0  0  0  0  0  0
    0.6518   -4.0646    1.0444 C   0  0  0  0  0  0  0  0  0  0  0  0
    0.0175   -1.1547   -1.1847 C   0  0  0  0  0  0  0  0  0  0  0  0
    0.0657    0.2379   -1.1634 C   0  0  0  0  0  0  0  0  0  0  0  0
    0.0633    1.0301   -2.4350 C   0  0  0  0  0  0  0  0  0  0  0  0
    0.1206    0.9493   -0.0155 N   0  0  0  0  0  0  0  0  0  0  0  0
    0.1939    0.4293    3.2957 H   0  0  0  0  0  0  0  0  0  0  0  0
   -0.7006    1.7168    2.4679 H   0  0  0  0  0  0  0  0  0  0  0  0
    1.0805    1.6823    2.4112 H   0  0  0  0  0  0  0  0  0  0  0  0
    0.0272   -1.6183    2.1533 H   0  0  0  0  0  0  0  0  0  0  0  0
    0.1226   -4.5173   -1.6315 H   0  0  0  0  0  0  0  0  0  0  0  0
   -1.2675   -3.4204   -1.7296 H   0  0  0  0  0  0  0  0  0  0  0  0
   -1.9902   -5.7215   -1.2753 H   0  0  0  0  0  0  0  0  0  0  0  0
   -2.4663   -4.6277    0.0282 H   0  0  0  0  0  0  0  0  0  0  0  0
   -1.0245   -8.2085   -1.2165 H   0  0  0  0  0  0  0  0  0  0  0  0
   -2.5969   -7.5359   -0.7323 H   0  0  0  0  0  0  0  0  0  0  0  0
   -2.8549   -9.2712    1.0141 H   0  0  0  0  0  0  0  0  0  0  0  0
   -1.3309   -9.9998    0.5527 H   0  0  0  0  0  0  0  0  0  0  0  0
   -5.3363  -11.6419   -2.9099 H   0  0  0  0  0  0  0  0  0  0  0  0
   -0.7870  -12.3958   -2.5908 H   0  0  0  0  0  0  0  0  0  0  0  0
   -0.6113  -12.0591   -0.8600 H   0  0  0  0  0  0  0  0  0  0  0  0
   -0.2792  -10.7845   -2.0538 H   0  0  0  0  0  0  0  0  0  0  0  0
    0.2521   -5.7575    2.3376 H   0  0  0  0  0  0  0  0  0  0  0  0
   -1.0998   -4.6276    2.1970 H   0  0  0  0  0  0  0  0  0  0  0  0
    1.4912   -4.5669    0.5455 H   0  0  0  0  0  0  0  0  0  0  0  0
    1.0847   -3.4698    1.8541 H   0  0  0  0  0  0  0  0  0  0  0  0
    0.0029   -1.6627   -2.1426 H   0  0  0  0  0  0  0  0  0  0  0  0
   -0.0045    0.3847   -3.3172 H   0  0  0  0  0  0  0  0  0  0  0  0
    0.9845    1.6148   -2.5084 H   0  0  0  0  0  0  0  0  0  0  0  0
   -0.7926    1.7118   -2.4452 H   0  0  0  0  0  0  0  0  0  0  0  0
  1  2  1  0  0  0  0
  1 25  1  0  0  0  0
  1 26  1  0  0  0  0
  1 27  1  0  0  0  0
  2  3  1  0  0  0  0
  2 24  2  0  0  0  0
  3  4  2  0  0  0  0
  3 28  1  0  0  0  0
  4  5  1  0  0  0  0
  4 21  1  0  0  0  0
  5  6  1  0  0  0  0
  5 20  1  0  0  0  0
  6  7  1  0  0  0  0
  6 29  1  0  0  0  0
  6 30  1  0  0  0  0
  7  8  1  0  0  0  0
  7 31  1  0  0  0  0
  7 32  1  0  0  0  0
  8  9  1  0  0  0  0
  8 19  1  0  0  0  0
  9 10  2  0  0  0  0
  9 11  1  0  0  0  0
 11 12  1  0  0  0  0
 11 33  1  0  0  0  0
 11 34  1  0  0  0  0
 12 13  1  0  0  0  0
 12 35  1  0  0  0  0
 12 36  1  0  0  0  0
 13 14  1  0  0  0  0
 13 17  2  0  0  0  0
 14 15  1  0  0  0  0
 15 16  2  0  0  0  0
 15 37  1  0  0  0  0
 16 17  1  0  0  0  0
 17 18  1  0  0  0  0
 18 38  1  0  0  0  0
 18 39  1  0  0  0  0
 18 40  1  0  0  0  0
 19 20  1  0  0  0  0
 19 41  1  0  0  0  0
 19 42  1  0  0  0  0
 20 43  1  0  0  0  0
 20 44  1  0  0  0  0
 21 22  2  0  0  0  0
 21 45  1  0  0  0  0
 22 23  1  0  0  0  0
 22 24  1  0  0  0  0
 23 46  1  0  0  0  0
 23 47  1  0  0  0  0
 23 48  1  0  0  0  0
M  END
$$$$
CHEMBL3475809
 OpenBabel01072218233D

 36 37  0  0  0  0  0  0  0  0999 V2000
   -0.0571   -0.5965   -2.6102 C   0  0  0  0  0  0  0  0  0  0  0  0
   -0.1449   -0.1605   -1.1915 C   0  0  0  0  0  0  0  0  0  0  0  0
   -0.0918    1.2005   -0.9285 N   0  0  0  0  0  0  0  0  0  0  0  0
   -0.1667    1.4102    0.3653 C   0  0  0  0  0  0  0  0  0  0  0  0
   -0.3152    0.0169    1.3442 S   0  0  0  0  0  0  0  0  0  0  0  0
   -0.2733   -0.9656   -0.0693 C   0  0  0  0  0  0  0  0  0  0  0  0
   -0.3472   -2.4607    0.0543 C   0  0  0  0  0  0  0  0  0  0  0  0
   -1.8045   -2.9689    0.0622 C   0  0  0  0  0  0  0  0  0  0  0  0
   -1.9435   -4.4307    0.2554 N   0  0  0  0  0  0  0  0  0  0  0  0
   -1.4022   -4.8446    1.5589 C   0  0  0  0  0  0  0  0  0  0  0  0
   -3.3739   -4.8113    0.1424 C   0  0  0  0  0  0  0  0  0  0  0  0
   -3.5774   -6.2885    0.2482 C   0  0  0  0  0  0  0  0  0  0  0  0
   -3.0767   -7.3554   -0.4629 C   0  0  0  0  0  0  0  0  0  0  0  0
   -3.5218   -8.5264    0.1974 C   0  0  0  0  0  0  0  0  0  0  0  0
   -4.2974   -8.1041    1.2562 C   0  0  0  0  0  0  0  0  0  0  0  0
   -5.0264   -8.8214    2.3273 C   0  0  0  0  0  0  0  0  0  0  0  0
   -6.4073   -8.4974    2.2148 O   0  0  0  0  0  0  0  0  0  0  0  0
   -4.3422   -6.7380    1.2878 O   0  0  0  0  0  0  0  0  0  0  0  0
    0.0782    0.2653   -3.2728 H   0  0  0  0  0  0  0  0  0  0  0  0
   -0.9731   -1.1133   -2.9106 H   0  0  0  0  0  0  0  0  0  0  0  0
    0.7933   -1.2691   -2.7563 H   0  0  0  0  0  0  0  0  0  0  0  0
   -0.1368    2.4040    0.7920 H   0  0  0  0  0  0  0  0  0  0  0  0
    0.1707   -2.7496    0.9759 H   0  0  0  0  0  0  0  0  0  0  0  0
    0.2048   -2.9311   -0.7683 H   0  0  0  0  0  0  0  0  0  0  0  0
   -2.2501   -2.7003   -0.9058 H   0  0  0  0  0  0  0  0  0  0  0  0
   -2.3813   -2.4333    0.8282 H   0  0  0  0  0  0  0  0  0  0  0  0
   -0.3174   -4.7186    1.5868 H   0  0  0  0  0  0  0  0  0  0  0  0
   -1.5559   -5.9125    1.7501 H   0  0  0  0  0  0  0  0  0  0  0  0
   -1.8480   -4.2842    2.3864 H   0  0  0  0  0  0  0  0  0  0  0  0
   -3.7534   -4.4991   -0.8389 H   0  0  0  0  0  0  0  0  0  0  0  0
   -3.9747   -4.2934    0.9007 H   0  0  0  0  0  0  0  0  0  0  0  0
   -2.4250   -7.2915   -1.3237 H   0  0  0  0  0  0  0  0  0  0  0  0
   -3.2903   -9.5521   -0.0526 H   0  0  0  0  0  0  0  0  0  0  0  0
   -4.6721   -8.5227    3.3169 H   0  0  0  0  0  0  0  0  0  0  0  0
   -4.9182   -9.9065    2.2279 H   0  0  0  0  0  0  0  0  0  0  0  0
   -6.4449   -7.5261    2.1426 H   0  0  0  0  0  0  0  0  0  0  0  0
  1  2  1  0  0  0  0
  1 19  1  0  0  0  0
  1 20  1  0  0  0  0
  1 21  1  0  0  0  0
  2  3  1  0  0  0  0
  2  6  2  0  0  0  0
  3  4  2  0  0  0  0
  4  5  1  0  0  0  0
  4 22  1  0  0  0  0
  5  6  1  0  0  0  0
  6  7  1  0  0  0  0
  7  8  1  0  0  0  0
  7 23  1  0  0  0  0
  7 24  1  0  0  0  0
  8  9  1  0  0  0  0
  8 25  1  0  0  0  0
  8 26  1  0  0  0  0
  9 10  1  0  0  0  0
  9 11  1  0  0  0  0
 10 27  1  0  0  0  0
 10 28  1  0  0  0  0
 10 29  1  0  0  0  0
 11 12  1  0  0  0  0
 11 30  1  0  0  0  0
 11 31  1  0  0  0  0
 12 13  2  0  0  0  0
 12 18  1  0  0  0  0
 13 14  1  0  0  0  0
 13 32  1  0  0  0  0
 14 15  2  0  0  0  0
 14 33  1  0  0  0  0
 15 16  1  0  0  0  0
 15 18  1  0  0  0  0
 16 17  1  0  0  0  0
 16 34  1  0  0  0  0
 16 35  1  0  0  0  0
 17 36  1  0  0  0  0
M  END
$$$$
CHEMBL4564232
 OpenBabel01072218233D

 39 40  0  0  0  0  0  0  0  0999 V2000
    0.7855   -0.4447    1.3221 C   0  0  0  0  0  0  0  0  0  0  0  0
    0.1280   -0.1846    0.0142 C   0  0  0  0  0  0  0  0  0  0  0  0
    0.0591    1.1257   -0.4322 N   0  0  0  0  0  0  0  0  0  0  0  0
   -0.5302    1.1681   -1.6068 C   0  0  0  0  0  0  0  0  0  0  0  0
   -1.0495   -0.3351   -2.2392 S   0  0  0  0  0  0  0  0  0  0  0  0
   -0.4339   -1.1207   -0.8419 C   0  0  0  0  0  0  0  0  0  0  0  0
   -0.5255   -2.6108   -0.7092 C   0  0  0  0  0  0  0  0  0  0  0  0
   -1.8490   -3.0582   -0.0924 C   0  0  0  0  0  0  0  0  0  0  0  0
   -1.9363   -4.5712   -0.0947 C   0  0  0  0  0  0  0  0  0  0  0  0
   -0.9518   -5.2981   -0.0307 O   0  0  0  0  0  0  0  0  0  0  0  0
   -3.2241   -5.0469   -0.1605 N   0  0  0  0  0  0  0  0  0  0  0  0
   -3.5254   -6.4696   -0.0327 C   0  0  0  0  0  0  0  0  0  0  0  0
   -3.8712   -6.8306    1.4276 C   0  0  0  0  0  0  0  0  0  0  0  0
   -4.8774   -5.8982    1.9389 N   0  0  0  0  0  0  0  0  0  0  0  0
   -6.2361   -6.1331    1.4571 C   0  0  0  0  0  0  0  0  0  0  0  0
   -6.9497   -5.0494    2.2399 C   0  0  0  0  0  0  0  0  0  0  0  0
   -6.3278   -5.1605    3.6279 C   0  0  0  0  0  0  0  0  0  0  0  0
   -4.9714   -5.8340    3.3944 C   0  0  0  0  0  0  0  0  0  0  0  0
    1.1589    0.4852    1.7634 H   0  0  0  0  0  0  0  0  0  0  0  0
    1.6349   -1.1234    1.1973 H   0  0  0  0  0  0  0  0  0  0  0  0
    0.0767   -0.8934    2.0245 H   0  0  0  0  0  0  0  0  0  0  0  0
   -0.6764    2.0922   -2.1428 H   0  0  0  0  0  0  0  0  0  0  0  0
    0.3120   -2.9752   -0.1019 H   0  0  0  0  0  0  0  0  0  0  0  0
   -0.4018   -3.0781   -1.6951 H   0  0  0  0  0  0  0  0  0  0  0  0
   -2.6957   -2.6409   -0.6521 H   0  0  0  0  0  0  0  0  0  0  0  0
   -1.9318   -2.7103    0.9439 H   0  0  0  0  0  0  0  0  0  0  0  0
   -3.9714   -4.4343    0.1537 H   0  0  0  0  0  0  0  0  0  0  0  0
   -2.6765   -7.0670   -0.3788 H   0  0  0  0  0  0  0  0  0  0  0  0
   -4.3744   -6.6727   -0.6899 H   0  0  0  0  0  0  0  0  0  0  0  0
   -2.9539   -6.7361    2.0223 H   0  0  0  0  0  0  0  0  0  0  0  0
   -4.1991   -7.8750    1.4991 H   0  0  0  0  0  0  0  0  0  0  0  0
   -6.6079   -7.1295    1.7331 H   0  0  0  0  0  0  0  0  0  0  0  0
   -6.3483   -5.9916    0.3801 H   0  0  0  0  0  0  0  0  0  0  0  0
   -8.0363   -5.1662    2.2487 H   0  0  0  0  0  0  0  0  0  0  0  0
   -6.7174   -4.0659    1.8078 H   0  0  0  0  0  0  0  0  0  0  0  0
   -6.9531   -5.7866    4.2733 H   0  0  0  0  0  0  0  0  0  0  0  0
   -6.2261   -4.1762    4.0934 H   0  0  0  0  0  0  0  0  0  0  0  0
   -4.9594   -6.8246    3.8612 H   0  0  0  0  0  0  0  0  0  0  0  0
   -4.1563   -5.2380    3.8161 H   0  0  0  0  0  0  0  0  0  0  0  0
  1  2  1  0  0  0  0
  1 19  1  0  0  0  0
  1 20  1  0  0  0  0
  1 21  1  0  0  0  0
  2  3  1  0  0  0  0
  2  6  2  0  0  0  0
  3  4  2  0  0  0  0
  4  5  1  0  0  0  0
  4 22  1  0  0  0  0
  5  6  1  0  0  0  0
  6  7  1  0  0  0  0
  7  8  1  0  0  0  0
  7 23  1  0  0  0  0
  7 24  1  0  0  0  0
  8  9  1  0  0  0  0
  8 25  1  0  0  0  0
  8 26  1  0  0  0  0
  9 10  2  0  0  0  0
  9 11  1  0  0  0  0
 11 12  1  0  0  0  0
 11 27  1  0  0  0  0
 12 13  1  0  0  0  0
 12 28  1  0  0  0  0
 12 29  1  0  0  0  0
 13 14  1  0  0  0  0
 13 30  1  0  0  0  0
 13 31  1  0  0  0  0
 14 15  1  0  0  0  0
 14 18  1  0  0  0  0
 15 16  1  0  0  0  0
 15 32  1  0  0  0  0
 15 33  1  0  0  0  0
 16 17  1  0  0  0  0
 16 34  1  0  0  0  0
 16 35  1  0  0  0  0
 17 18  1  0  0  0  0
 17 36  1  0  0  0  0
 17 37  1  0  0  0  0
 18 38  1  0  0  0  0
 18 39  1  0  0  0  0
M  END
$$$$
CHEMBL1419411
 OpenBabel01072218233D

 30 31  0  0  0  0  0  0  0  0999 V2000
   -0.1502   -0.3464    2.3881 C   0  0  0  0  0  0  0  0  0  0  0  0
   -0.1068   -0.1374    0.9155 C   0  0  0  0  0  0  0  0  0  0  0  0
    0.0041    1.1627    0.4502 N   0  0  0  0  0  0  0  0  0  0  0  0
    0.0255    1.1673   -0.8621 C   0  0  0  0  0  0  0  0  0  0  0  0
   -0.0927   -0.3643   -1.6225 S   0  0  0  0  0  0  0  0  0  0  0  0
   -0.1755   -1.1066   -0.0760 C   0  0  0  0  0  0  0  0  0  0  0  0
   -0.3302   -2.5931    0.0486 C   0  0  0  0  0  0  0  0  0  0  0  0
   -1.8090   -2.9722    0.1147 C   0  0  0  0  0  0  0  0  0  0  0  0
   -2.0629   -4.3792    0.2475 O   0  0  0  0  0  0  0  0  0  0  0  0
   -1.8809   -4.8462    1.5058 C   0  0  0  0  0  0  0  0  0  0  0  0
   -0.9931   -4.5140    2.2740 O   0  0  0  0  0  0  0  0  0  0  0  0
   -3.0843   -5.5993    1.9298 C   0  0  0  0  0  0  0  0  0  0  0  0
   -3.4234   -5.5451    3.2892 C   0  0  0  0  0  0  0  0  0  0  0  0
   -4.6151   -6.1137    3.7382 C   0  0  0  0  0  0  0  0  0  0  0  0
   -5.4599   -6.7503    2.8308 C   0  0  0  0  0  0  0  0  0  0  0  0
   -6.9412   -7.4281    3.3815 Cl  0  0  0  0  0  0  0  0  0  0  0  0
   -5.1194   -6.8287    1.4790 C   0  0  0  0  0  0  0  0  0  0  0  0
   -3.9302   -6.2505    1.0238 C   0  0  0  0  0  0  0  0  0  0  0  0
   -0.0503    0.6064    2.9197 H   0  0  0  0  0  0  0  0  0  0  0  0
    0.6671   -0.9981    2.7092 H   0  0  0  0  0  0  0  0  0  0  0  0
   -1.1007   -0.7988    2.6857 H   0  0  0  0  0  0  0  0  0  0  0  0
    0.1080    2.0790   -1.4384 H   0  0  0  0  0  0  0  0  0  0  0  0
    0.2096   -2.9342    0.9370 H   0  0  0  0  0  0  0  0  0  0  0  0
    0.1450   -3.1140   -0.7929 H   0  0  0  0  0  0  0  0  0  0  0  0
   -2.3154   -2.6600   -0.8066 H   0  0  0  0  0  0  0  0  0  0  0  0
   -2.3174   -2.4444    0.9324 H   0  0  0  0  0  0  0  0  0  0  0  0
   -2.7763   -5.0264    3.9951 H   0  0  0  0  0  0  0  0  0  0  0  0
   -4.8828   -6.0405    4.7890 H   0  0  0  0  0  0  0  0  0  0  0  0
   -5.7857   -7.3209    0.7742 H   0  0  0  0  0  0  0  0  0  0  0  0
   -3.6841   -6.2960   -0.0350 H   0  0  0  0  0  0  0  0  0  0  0  0
  1  2  1  0  0  0  0
  1 19  1  0  0  0  0
  1 20  1  0  0  0  0
  1 21  1  0  0  0  0
  2  3  1  0  0  0  0
  2  6  2  0  0  0  0
  3  4  2  0  0  0  0
  4  5  1  0  0  0  0
  4 22  1  0  0  0  0
  5  6  1  0  0  0  0
  6  7  1  0  0  0  0
  7  8  1  0  0  0  0
  7 23  1  0  0  0  0
  7 24  1  0  0  0  0
  8  9  1  0  0  0  0
  8 25  1  0  0  0  0
  8 26  1  0  0  0  0
  9 10  1  0  0  0  0
 10 11  2  0  0  0  0
 10 12  1  0  0  0  0
 12 13  1  0  0  0  0
 12 18  2  0  0  0  0
 13 14  2  0  0  0  0
 13 27  1  0  0  0  0
 14 15  1  0  0  0  0
 14 28  1  0  0  0  0
 15 16  1  0  0  0  0
 15 17  2  0  0  0  0
 17 18  1  0  0  0  0
 17 29  1  0  0  0  0
 18 30  1  0  0  0  0
M  END
$$$$
CHEMBL3236173
 OpenBabel01072218233D

 19 19  0  0  0  0  0  0  0  0999 V2000
   -2.6227   -0.1849   -0.0196 C   0  0  0  0  0  0  0  0  0  0  0  0
   -1.1389   -0.0807   -0.0123 C   0  0  0  0  0  0  0  0  0  0  0  0
   -0.5816    1.1892   -0.0274 N   0  0  0  0  0  0  0  0  0  0  0  0
    0.7292    1.1033   -0.0067 C   0  0  0  0  0  0  0  0  0  0  0  0
    1.3766   -0.4788    0.0204 S   0  0  0  0  0  0  0  0  0  0  0  0
   -0.2199   -1.1203    0.0077 C   0  0  0  0  0  0  0  0  0  0  0  0
   -0.4354   -2.6034    0.0264 C   0  0  0  0  0  0  0  0  0  0  0  0
   -0.4701   -3.1900   -1.3862 C   0  0  0  0  0  0  0  0  0  0  0  0
   -0.6418   -4.6468   -1.2957 N   0  0  0  0  0  0  0  0  0  0  0  0
   -0.6564   -5.2493   -2.3865 N   0  3  0  0  0  0  0  0  0  0  0  0
   -0.6708   -5.7962   -3.3869 N   0  5  0  0  0  0  0  0  0  0  0  0
   -3.0820    0.8098   -0.0250 H   0  0  0  0  0  0  0  0  0  0  0  0
   -2.9773   -0.7133    0.8707 H   0  0  0  0  0  0  0  0  0  0  0  0
   -2.9678   -0.7201   -0.9093 H   0  0  0  0  0  0  0  0  0  0  0  0
    1.3648    1.9785   -0.0081 H   0  0  0  0  0  0  0  0  0  0  0  0
   -1.3738   -2.8359    0.5455 H   0  0  0  0  0  0  0  0  0  0  0  0
    0.3554   -3.0933    0.6098 H   0  0  0  0  0  0  0  0  0  0  0  0
    0.4606   -2.9581   -1.9192 H   0  0  0  0  0  0  0  0  0  0  0  0
   -1.2999   -2.7536   -1.9558 H   0  0  0  0  0  0  0  0  0  0  0  0
  1  2  1  0  0  0  0
  1 12  1  0  0  0  0
  1 13  1  0  0  0  0
  1 14  1  0  0  0  0
  2  3  1  0  0  0  0
  2  6  2  0  0  0  0
  3  4  2  0  0  0  0
  4  5  1  0  0  0  0
  4 15  1  0  0  0  0
  5  6  1  0  0  0  0
  6  7  1  0  0  0  0
  7  8  1  0  0  0  0
  7 16  1  0  0  0  0
  7 17  1  0  0  0  0
  8  9  1  0  0  0  0
  8 18  1  0  0  0  0
  8 19  1  0  0  0  0
  9 10  2  0  0  0  0
 10 11  2  0  0  0  0
M  CHG  2  10   1  11  -1
M  END
$$$$
CHEMBL4576460
 OpenBabel01072218233D

 38 38  0  0  1  0  0  0  0  0999 V2000
   -0.1550   -0.3677    2.6398 C   0  0  0  0  0  0  0  0  0  0  0  0
   -0.0941   -0.1332    1.1720 C   0  0  0  0  0  0  0  0  0  0  0  0
    0.0025    1.1837    0.7452 N   0  0  0  0  0  0  0  0  0  0  0  0
    0.0296    1.2322   -0.5658 C   0  0  0  0  0  0  0  0  0  0  0  0
   -0.0467   -0.2726   -1.3724 S   0  0  0  0  0  0  0  0  0  0  0  0
   -0.1345   -1.0749    0.1504 C   0  0  0  0  0  0  0  0  0  0  0  0
   -0.2749   -2.5720    0.1976 C   0  0  0  0  0  0  0  0  0  0  0  0
   -1.7514   -2.9695    0.1555 C   0  0  0  0  0  0  0  0  0  0  0  0
   -2.0211   -4.3944    0.1740 N   0  0  0  0  0  0  0  0  0  0  0  0
   -3.3453   -4.8028    0.1445 C   0  0  0  0  0  0  0  0  0  0  0  0
   -4.2772   -3.9896    0.1766 O   0  0  0  0  0  0  0  0  0  0  0  0
   -3.6158   -6.3262    0.1172 C   0  0  1  0  0  0  0  0  0  0  0  0
   -4.9040   -6.5562    0.8252 N   0  0  0  0  0  0  0  0  0  0  0  0
   -3.6334   -6.9372   -1.3214 C   0  0  0  0  0  0  0  0  0  0  0  0
   -2.2527   -6.8020   -1.9932 C   0  0  0  0  0  0  0  0  0  0  0  0
   -3.9713   -8.4449   -1.2464 C   0  0  0  0  0  0  0  0  0  0  0  0
   -4.6785   -6.2605   -2.2315 C   0  0  0  0  0  0  0  0  0  0  0  0
   -0.0919    0.5811    3.1844 H   0  0  0  0  0  0  0  0  0  0  0  0
    0.6787   -0.9957    2.9663 H   0  0  0  0  0  0  0  0  0  0  0  0
   -1.0962   -0.8503    2.9191 H   0  0  0  0  0  0  0  0  0  0  0  0
    0.0964    2.1673   -1.1061 H   0  0  0  0  0  0  0  0  0  0  0  0
    0.2022   -2.9690    1.1020 H   0  0  0  0  0  0  0  0  0  0  0  0
    0.2545   -3.0296   -0.6496 H   0  0  0  0  0  0  0  0  0  0  0  0
   -2.2250   -2.5671   -0.7482 H   0  0  0  0  0  0  0  0  0  0  0  0
   -2.2748   -2.5322    1.0143 H   0  0  0  0  0  0  0  0  0  0  0  0
   -1.2882   -5.0567   -0.0600 H   0  0  0  0  0  0  0  0  0  0  0  0
   -2.8367   -6.8125    0.7151 H   0  0  0  0  0  0  0  0  0  0  0  0
   -5.6244   -6.0353    0.3146 H   0  0  0  0  0  0  0  0  0  0  0  0
   -4.8661   -6.0605    1.7192 H   0  0  0  0  0  0  0  0  0  0  0  0
   -1.4674   -7.2641   -1.3847 H   0  0  0  0  0  0  0  0  0  0  0  0
   -1.9838   -5.7548   -2.1624 H   0  0  0  0  0  0  0  0  0  0  0  0
   -2.2423   -7.2918   -2.9740 H   0  0  0  0  0  0  0  0  0  0  0  0
   -3.2442   -8.9843   -0.6294 H   0  0  0  0  0  0  0  0  0  0  0  0
   -3.9662   -8.9012   -2.2431 H   0  0  0  0  0  0  0  0  0  0  0  0
   -4.9665   -8.6186   -0.8224 H   0  0  0  0  0  0  0  0  0  0  0  0
   -4.4712   -5.1926   -2.3567 H   0  0  0  0  0  0  0  0  0  0  0  0
   -5.6940   -6.3652   -1.8366 H   0  0  0  0  0  0  0  0  0  0  0  0
   -4.6758   -6.7109   -3.2311 H   0  0  0  0  0  0  0  0  0  0  0  0
  1  2  1  0  0  0  0
  1 18  1  0  0  0  0
  1 19  1  0  0  0  0
  1 20  1  0  0  0  0
  2  3  1  0  0  0  0
  2  6  2  0  0  0  0
  3  4  2  0  0  0  0
  4  5  1  0  0  0  0
  4 21  1  0  0  0  0
  5  6  1  0  0  0  0
  6  7  1  0  0  0  0
  7  8  1  0  0  0  0
  7 22  1  0  0  0  0
  7 23  1  0  0  0  0
  8  9  1  0  0  0  0
  8 24  1  0  0  0  0
  8 25  1  0  0  0  0
  9 10  1  0  0  0  0
  9 26  1  0  0  0  0
 10 11  2  0  0  0  0
 10 12  1  0  0  0  0
 12 13  1  0  0  0  0
 12 14  1  0  0  0  0
 12 27  1  1  0  0  0
 13 28  1  0  0  0  0
 13 29  1  0  0  0  0
 14 15  1  0  0  0  0
 14 16  1  0  0  0  0
 14 17  1  0  0  0  0
 15 30  1  0  0  0  0
 15 31  1  0  0  0  0
 15 32  1  0  0  0  0
 16 33  1  0  0  0  0
 16 34  1  0  0  0  0
 16 35  1  0  0  0  0
 17 36  1  0  0  0  0
 17 37  1  0  0  0  0
 17 38  1  0  0  0  0
M  END
$$$$
CHEMBL1740596
 OpenBabel01072218233D

 29 30  0  0  0  0  0  0  0  0999 V2000
   -0.1660   -0.2955    2.4140 C   0  0  0  0  0  0  0  0  0  0  0  0
   -0.1344   -0.1283    0.9348 C   0  0  0  0  0  0  0  0  0  0  0  0
   -0.0004    1.1642    0.4473 N   0  0  0  0  0  0  0  0  0  0  0  0
    0.0149    1.1529   -0.8651 C   0  0  0  0  0  0  0  0  0  0  0  0
   -0.1353   -0.3809   -1.6027 S   0  0  0  0  0  0  0  0  0  0  0  0
   -0.2232   -1.1093   -0.0460 C   0  0  0  0  0  0  0  0  0  0  0  0
   -0.3697   -2.5942    0.0653 C   0  0  0  0  0  0  0  0  0  0  0  0
   -1.8390   -3.0245    0.0785 C   0  0  0  0  0  0  0  0  0  0  0  0
   -1.9567   -4.4563    0.1853 O   0  0  0  0  0  0  0  0  0  0  0  0
   -1.8338   -4.9223    1.4514 C   0  0  0  0  0  0  0  0  0  0  0  0
   -1.5901   -4.2369    2.4360 O   0  0  0  0  0  0  0  0  0  0  0  0
   -2.0224   -6.3803    1.5272 C   0  0  0  0  0  0  0  0  0  0  0  0
   -2.3214   -7.1908    0.4308 C   0  0  0  0  0  0  0  0  0  0  0  0
   -2.4794   -8.5624    0.6252 C   0  0  0  0  0  0  0  0  0  0  0  0
   -2.3353   -9.0706    1.9080 C   0  0  0  0  0  0  0  0  0  0  0  0
   -2.0487   -8.3123    2.9878 N   0  0  0  0  0  0  0  0  0  0  0  0
   -1.8978   -6.9833    2.7740 C   0  0  0  0  0  0  0  0  0  0  0  0
   -0.0654    0.6778    2.9097 H   0  0  0  0  0  0  0  0  0  0  0  0
    0.6587   -0.9273    2.7559 H   0  0  0  0  0  0  0  0  0  0  0  0
   -1.1130   -0.7360    2.7382 H   0  0  0  0  0  0  0  0  0  0  0  0
    0.1152    2.0567   -1.4482 H   0  0  0  0  0  0  0  0  0  0  0  0
    0.1474   -2.9569    0.9610 H   0  0  0  0  0  0  0  0  0  0  0  0
    0.1366   -3.0976   -0.7702 H   0  0  0  0  0  0  0  0  0  0  0  0
   -2.3351   -2.7356   -0.8550 H   0  0  0  0  0  0  0  0  0  0  0  0
   -2.3974   -2.5357    0.8866 H   0  0  0  0  0  0  0  0  0  0  0  0
   -2.4345   -6.7733   -0.5659 H   0  0  0  0  0  0  0  0  0  0  0  0
   -2.7098   -9.2231   -0.2038 H   0  0  0  0  0  0  0  0  0  0  0  0
   -2.4491  -10.1322    2.1084 H   0  0  0  0  0  0  0  0  0  0  0  0
   -1.6673   -6.4022    3.6633 H   0  0  0  0  0  0  0  0  0  0  0  0
  1  2  1  0  0  0  0
  1 18  1  0  0  0  0
  1 19  1  0  0  0  0
  1 20  1  0  0  0  0
  2  3  1  0  0  0  0
  2  6  2  0  0  0  0
  3  4  2  0  0  0  0
  4  5  1  0  0  0  0
  4 21  1  0  0  0  0
  5  6  1  0  0  0  0
  6  7  1  0  0  0  0
  7  8  1  0  0  0  0
  7 22  1  0  0  0  0
  7 23  1  0  0  0  0
  8  9  1  0  0  0  0
  8 24  1  0  0  0  0
  8 25  1  0  0  0  0
  9 10  1  0  0  0  0
 10 11  2  0  0  0  0
 10 12  1  0  0  0  0
 12 13  1  0  0  0  0
 12 17  2  0  0  0  0
 13 14  2  0  0  0  0
 13 26  1  0  0  0  0
 14 15  1  0  0  0  0
 14 27  1  0  0  0  0
 15 16  2  0  0  0  0
 15 28  1  0  0  0  0
 16 17  1  0  0  0  0
 17 29  1  0  0  0  0
M  END
$$$$
CHEMBL1236482
 OpenBabel01072218233D

 18 18  0  0  0  0  0  0  0  0999 V2000
   -2.6095   -0.1850   -0.0192 C   0  0  0  0  0  0  0  0  0  0  0  0
   -1.1281   -0.0481    0.0200 C   0  0  0  0  0  0  0  0  0  0  0  0
   -0.5924    1.2309    0.0360 N   0  0  0  0  0  0  0  0  0  0  0  0
    0.7198    1.1645    0.0440 C   0  0  0  0  0  0  0  0  0  0  0  0
    1.3928   -0.4081    0.0610 S   0  0  0  0  0  0  0  0  0  0  0  0
   -0.1922   -1.0722    0.0394 C   0  0  0  0  0  0  0  0  0  0  0  0
   -0.3990   -2.5584    0.0232 C   0  0  0  0  0  0  0  0  0  0  0  0
   -0.4078   -3.1659    1.4255 C   0  0  0  0  0  0  0  0  0  0  0  0
   -1.5443   -2.7403    2.1707 O   0  0  0  0  0  0  0  0  0  0  0  0
   -3.0913    0.7977   -0.0435 H   0  0  0  0  0  0  0  0  0  0  0  0
   -2.9724   -0.7149    0.8662 H   0  0  0  0  0  0  0  0  0  0  0  0
   -2.9199   -0.7368   -0.9115 H   0  0  0  0  0  0  0  0  0  0  0  0
    1.3408    2.0509    0.0400 H   0  0  0  0  0  0  0  0  0  0  0  0
    0.3920   -3.0348   -0.5690 H   0  0  0  0  0  0  0  0  0  0  0  0
   -1.3485   -2.7812   -0.4780 H   0  0  0  0  0  0  0  0  0  0  0  0
    0.4963   -2.9190    1.9920 H   0  0  0  0  0  0  0  0  0  0  0  0
   -0.4661   -4.2563    1.3466 H   0  0  0  0  0  0  0  0  0  0  0  0
   -1.3865   -1.8135    2.4264 H   0  0  0  0  0  0  0  0  0  0  0  0
  1  2  1  0  0  0  0
  1 10  1  0  0  0  0
  1 11  1  0  0  0  0
  1 12  1  0  0  0  0
  2  3  1  0  0  0  0
  2  6  2  0  0  0  0
  3  4  2  0  0  0  0
  4  5  1  0  0  0  0
  4 13  1  0  0  0  0
  5  6  1  0  0  0  0
  6  7  1  0  0  0  0
  7  8  1  0  0  0  0
  7 14  1  0  0  0  0
  7 15  1  0  0  0  0
  8  9  1  0  0  0  0
  8 16  1  0  0  0  0
  8 17  1  0  0  0  0
  9 18  1  0  0  0  0
M  END
$$$$
CHEMBL3483991
 OpenBabel01072218233D

 38 39  0  0  0  0  0  0  0  0999 V2000
    0.9441   -0.5827    1.5550 C   0  0  0  0  0  0  0  0  0  0  0  0
    0.1719   -0.2086    0.3400 C   0  0  0  0  0  0  0  0  0  0  0  0
    0.0642    1.1402    0.0348 N   0  0  0  0  0  0  0  0  0  0  0  0
   -0.6301    1.2947   -1.0691 C   0  0  0  0  0  0  0  0  0  0  0  0
   -1.2046   -0.1393   -1.8020 S   0  0  0  0  0  0  0  0  0  0  0  0
   -0.4669   -1.0619   -0.5493 C   0  0  0  0  0  0  0  0  0  0  0  0
   -0.5682   -2.5600   -0.5555 C   0  0  0  0  0  0  0  0  0  0  0  0
   -1.8406   -3.0456    0.1376 C   0  0  0  0  0  0  0  0  0  0  0  0
   -1.9806   -4.5518    0.0507 C   0  0  0  0  0  0  0  0  0  0  0  0
   -1.0270   -5.3082   -0.1009 O   0  0  0  0  0  0  0  0  0  0  0  0
   -3.2721   -4.9952    0.2264 N   0  0  0  0  0  0  0  0  0  0  0  0
   -3.6089   -6.3975    0.1243 C   0  0  0  0  0  0  0  0  0  0  0  0
   -4.8956   -6.6398    0.8460 C   0  0  0  0  0  0  0  0  0  0  0  0
   -5.0791   -7.4804    1.9223 C   0  0  0  0  0  0  0  0  0  0  0  0
   -6.7111   -7.4576    2.4114 S   0  0  0  0  0  0  0  0  0  0  0  0
   -7.1012   -6.3186    1.1562 C   0  0  0  0  0  0  0  0  0  0  0  0
   -8.3543   -5.8215    0.9467 N   0  0  0  0  0  0  0  0  0  0  0  0
   -8.5895   -4.9033   -0.1562 C   0  0  0  0  0  0  0  0  0  0  0  0
   -9.5341   -6.2363    1.6867 C   0  0  0  0  0  0  0  0  0  0  0  0
   -6.0497   -5.9768    0.4339 N   0  0  0  0  0  0  0  0  0  0  0  0
    1.3431    0.3088    2.0510 H   0  0  0  0  0  0  0  0  0  0  0  0
    1.7887   -1.2266    1.2923 H   0  0  0  0  0  0  0  0  0  0  0  0
    0.3056   -1.1092    2.2702 H   0  0  0  0  0  0  0  0  0  0  0  0
   -0.8291    2.2703   -1.4930 H   0  0  0  0  0  0  0  0  0  0  0  0
    0.3170   -2.9881   -0.0686 H   0  0  0  0  0  0  0  0  0  0  0  0
   -0.5463   -2.9290   -1.5897 H   0  0  0  0  0  0  0  0  0  0  0  0
   -2.7229   -2.5756   -0.3112 H   0  0  0  0  0  0  0  0  0  0  0  0
   -1.8208   -2.7726    1.1997 H   0  0  0  0  0  0  0  0  0  0  0  0
   -4.0462   -4.3483    0.1324 H   0  0  0  0  0  0  0  0  0  0  0  0
   -2.7975   -7.0068    0.5381 H   0  0  0  0  0  0  0  0  0  0  0  0
   -3.7171   -6.6452   -0.9371 H   0  0  0  0  0  0  0  0  0  0  0  0
   -4.3477   -8.0917    2.4296 H   0  0  0  0  0  0  0  0  0  0  0  0
   -7.6844   -4.6290   -0.7075 H   0  0  0  0  0  0  0  0  0  0  0  0
   -9.0341   -3.9757    0.2215 H   0  0  0  0  0  0  0  0  0  0  0  0
   -9.2899   -5.3457   -0.8738 H   0  0  0  0  0  0  0  0  0  0  0  0
   -9.3435   -6.9416    2.4993 H   0  0  0  0  0  0  0  0  0  0  0  0
  -10.2558   -6.7105    1.0115 H   0  0  0  0  0  0  0  0  0  0  0  0
  -10.0187   -5.3604    2.1328 H   0  0  0  0  0  0  0  0  0  0  0  0
  1  2  1  0  0  0  0
  1 21  1  0  0  0  0
  1 22  1  0  0  0  0
  1 23  1  0  0  0  0
  2  3  1  0  0  0  0
  2  6  2  0  0  0  0
  3  4  2  0  0  0  0
  4  5  1  0  0  0  0
  4 24  1  0  0  0  0
  5  6  1  0  0  0  0
  6  7  1  0  0  0  0
  7  8  1  0  0  0  0
  7 25  1  0  0  0  0
  7 26  1  0  0  0  0
  8  9  1  0  0  0  0
  8 27  1  0  0  0  0
  8 28  1  0  0  0  0
  9 10  2  0  0  0  0
  9 11  1  0  0  0  0
 11 12  1  0  0  0  0
 11 29  1  0  0  0  0
 12 13  1  0  0  0  0
 12 30  1  0  0  0  0
 12 31  1  0  0  0  0
 13 14  2  0  0  0  0
 13 20  1  0  0  0  0
 14 15  1  0  0  0  0
 14 32  1  0  0  0  0
 15 16  1  0  0  0  0
 16 17  1  0  0  0  0
 16 20  2  0  0  0  0
 17 18  1  0  0  0  0
 17 19  1  0  0  0  0
 18 33  1  0  0  0  0
 18 34  1  0  0  0  0
 18 35  1  0  0  0  0
 19 36  1  0  0  0  0
 19 37  1  0  0  0  0
 19 38  1  0  0  0  0
M  END
$$$$
CHEMBL4539956
 OpenBabel01072218233D

 38 38  0  0  1  0  0  0  0  0999 V2000
    4.9419    0.0473    2.8054 C   0  0  0  0  0  0  0  0  0  0  0  0
    4.2120    0.4551    1.6044 N   0  0  0  0  0  0  0  0  0  0  0  0
    2.8913   -0.2316    1.4994 C   0  0  2  0  0  0  0  0  0  0  0  0
    2.3633   -0.0470    0.0500 C   0  0  0  0  0  0  0  0  0  0  0  0
    1.9534   -0.9874   -0.6261 O   0  0  0  0  0  0  0  0  0  0  0  0
    2.3682    1.2539   -0.4026 N   0  0  0  0  0  0  0  0  0  0  0  0
    1.9202    1.6250   -1.7298 C   0  0  0  0  0  0  0  0  0  0  0  0
    0.3926    1.6355   -1.8770 C   0  0  0  0  0  0  0  0  0  0  0  0
   -0.0105    2.0036   -3.2746 C   0  0  0  0  0  0  0  0  0  0  0  0
   -0.2552    3.6464   -3.7169 S   0  0  0  0  0  0  0  0  0  0  0  0
   -0.6015    3.1500   -5.3178 C   0  0  0  0  0  0  0  0  0  0  0  0
   -0.5626    1.8567   -5.5417 N   0  0  0  0  0  0  0  0  0  0  0  0
   -0.2284    1.1867   -4.3746 C   0  0  0  0  0  0  0  0  0  0  0  0
   -0.1324   -0.2970   -4.4189 C   0  0  0  0  0  0  0  0  0  0  0  0
    1.8591    0.2365    2.5616 C   0  0  0  0  0  0  0  0  0  0  0  0
    1.5447    1.7357    2.5431 C   0  0  0  0  0  0  0  0  0  0  0  0
    0.5577   -0.5669    2.4541 C   0  0  0  0  0  0  0  0  0  0  0  0
    5.9289    0.5202    2.8037 H   0  0  0  0  0  0  0  0  0  0  0  0
    5.0955   -1.0370    2.8390 H   0  0  0  0  0  0  0  0  0  0  0  0
    4.4379    0.3677    3.7212 H   0  0  0  0  0  0  0  0  0  0  0  0
    4.7717    0.1557    0.8003 H   0  0  0  0  0  0  0  0  0  0  0  0
    3.0609   -1.3142    1.6141 H   0  0  0  0  0  0  0  0  0  0  0  0
    2.8738    1.9262    0.1672 H   0  0  0  0  0  0  0  0  0  0  0  0
    2.3696    0.9301   -2.4481 H   0  0  0  0  0  0  0  0  0  0  0  0
    2.3269    2.6221   -1.9314 H   0  0  0  0  0  0  0  0  0  0  0  0
   -0.0466    2.3371   -1.1558 H   0  0  0  0  0  0  0  0  0  0  0  0
   -0.0241    0.6526   -1.6246 H   0  0  0  0  0  0  0  0  0  0  0  0
   -0.8373    3.8627   -6.0972 H   0  0  0  0  0  0  0  0  0  0  0  0
   -0.1894   -0.6609   -5.4499 H   0  0  0  0  0  0  0  0  0  0  0  0
   -0.9535   -0.7472   -3.8529 H   0  0  0  0  0  0  0  0  0  0  0  0
    0.8157   -0.6379   -3.9926 H   0  0  0  0  0  0  0  0  0  0  0  0
    2.2681    0.0127    3.5548 H   0  0  0  0  0  0  0  0  0  0  0  0
    0.9997    2.0315    1.6417 H   0  0  0  0  0  0  0  0  0  0  0  0
    2.4555    2.3376    2.6150 H   0  0  0  0  0  0  0  0  0  0  0  0
    0.9091    2.0011    3.3953 H   0  0  0  0  0  0  0  0  0  0  0  0
    0.0825   -0.4403    1.4776 H   0  0  0  0  0  0  0  0  0  0  0  0
   -0.1605   -0.2497    3.2181 H   0  0  0  0  0  0  0  0  0  0  0  0
    0.7532   -1.6336    2.6006 H   0  0  0  0  0  0  0  0  0  0  0  0
  1  2  1  0  0  0  0
  1 18  1  0  0  0  0
  1 19  1  0  0  0  0
  1 20  1  0  0  0  0
  2 21  1  0  0  0  0
  3 15  1  0  0  0  0
  3  4  1  0  0  0  0
  3  2  1  0  0  0  0
  3 22  1  1  0  0  0
  4  5  2  0  0  0  0
  4  6  1  0  0  0  0
  6  7  1  0  0  0  0
  6 23  1  0  0  0  0
  7  8  1  0  0  0  0
  7 24  1  0  0  0  0
  7 25  1  0  0  0  0
  8  9  1  0  0  0  0
  8 26  1  0  0  0  0
  8 27  1  0  0  0  0
  9 10  1  0  0  0  0
  9 13  2  0  0  0  0
 10 11  1  0  0  0  0
 11 12  2  0  0  0  0
 11 28  1  0  0  0  0
 12 13  1  0  0  0  0
 13 14  1  0  0  0  0
 14 29  1  0  0  0  0
 14 30  1  0  0  0  0
 14 31  1  0  0  0  0
 15 16  1  0  0  0  0
 15 17  1  0  0  0  0
 15 32  1  0  0  0  0
 16 33  1  0  0  0  0
 16 34  1  0  0  0  0
 16 35  1  0  0  0  0
 17 36  1  0  0  0  0
 17 37  1  0  0  0  0
 17 38  1  0  0  0  0
M  END
$$$$
CHEMBL3478166
 OpenBabel01072218233D

 35 36  0  0  0  0  0  0  0  0999 V2000
    1.7722    0.1535   -1.5096 C   0  0  0  0  0  0  0  0  0  0  0  0
    0.7870    0.2149   -0.3868 C   0  0  0  0  0  0  0  0  0  0  0  0
    0.2674    1.4432    0.1429 C   0  0  0  0  0  0  0  0  0  0  0  0
   -0.6314    1.2433    1.1640 C   0  0  0  0  0  0  0  0  0  0  0  0
   -0.8631   -0.4098    1.4973 S   0  0  0  0  0  0  0  0  0  0  0  0
    0.2607   -0.8822    0.2868 C   0  0  0  0  0  0  0  0  0  0  0  0
    0.5207   -2.3531    0.0712 C   0  0  0  0  0  0  0  0  0  0  0  0
    1.9361   -2.7479    0.2396 N   0  0  0  0  0  0  0  0  0  0  0  0
    2.3996   -2.4879    1.6115 C   0  0  0  0  0  0  0  0  0  0  0  0
    2.1288   -4.1873   -0.0579 C   0  0  0  0  0  0  0  0  0  0  0  0
    1.8299   -4.5703   -1.5180 C   0  0  0  0  0  0  0  0  0  0  0  0
    2.1019   -6.0167   -1.8010 C   0  0  0  0  0  0  0  0  0  0  0  0
    0.8700   -7.1976   -1.6027 S   0  0  0  0  0  0  0  0  0  0  0  0
    1.9470   -8.3970   -2.1741 C   0  0  0  0  0  0  0  0  0  0  0  0
    3.1581   -7.9882   -2.4772 N   0  0  0  0  0  0  0  0  0  0  0  0
    3.2588   -6.6217   -2.2690 C   0  0  0  0  0  0  0  0  0  0  0  0
    4.5482   -5.9481   -2.5771 C   0  0  0  0  0  0  0  0  0  0  0  0
    1.8492    1.1221   -2.0168 H   0  0  0  0  0  0  0  0  0  0  0  0
    1.4665   -0.5859   -2.2575 H   0  0  0  0  0  0  0  0  0  0  0  0
    2.7653   -0.1112   -1.1360 H   0  0  0  0  0  0  0  0  0  0  0  0
    0.5403    2.4290   -0.2144 H   0  0  0  0  0  0  0  0  0  0  0  0
   -1.1702    1.9937    1.7277 H   0  0  0  0  0  0  0  0  0  0  0  0
    0.2077   -2.5411   -0.9622 H   0  0  0  0  0  0  0  0  0  0  0  0
   -0.1234   -2.9669    0.7118 H   0  0  0  0  0  0  0  0  0  0  0  0
    2.2119   -1.4569    1.9310 H   0  0  0  0  0  0  0  0  0  0  0  0
    3.4864   -2.6195    1.6695 H   0  0  0  0  0  0  0  0  0  0  0  0
    1.9318   -3.1584    2.3423 H   0  0  0  0  0  0  0  0  0  0  0  0
    1.5161   -4.8009    0.6191 H   0  0  0  0  0  0  0  0  0  0  0  0
    3.1744   -4.4491    0.1489 H   0  0  0  0  0  0  0  0  0  0  0  0
    2.4364   -3.9493   -2.1880 H   0  0  0  0  0  0  0  0  0  0  0  0
    0.7844   -4.3648   -1.7704 H   0  0  0  0  0  0  0  0  0  0  0  0
    1.6422   -9.4295   -2.2801 H   0  0  0  0  0  0  0  0  0  0  0  0
    5.2856   -6.6650   -2.9481 H   0  0  0  0  0  0  0  0  0  0  0  0
    4.9540   -5.4754   -1.6763 H   0  0  0  0  0  0  0  0  0  0  0  0
    4.4035   -5.1795   -3.3405 H   0  0  0  0  0  0  0  0  0  0  0  0
  1  2  1  0  0  0  0
  1 18  1  0  0  0  0
  1 19  1  0  0  0  0
  1 20  1  0  0  0  0
  2  3  1  0  0  0  0
  2  6  2  0  0  0  0
  3  4  2  0  0  0  0
  3 21  1  0  0  0  0
  4  5  1  0  0  0  0
  4 22  1  0  0  0  0
  5  6  1  0  0  0  0
  6  7  1  0  0  0  0
  7  8  1  0  0  0  0
  7 23  1  0  0  0  0
  7 24  1  0  0  0  0
  8  9  1  0  0  0  0
  8 10  1  0  0  0  0
  9 25  1  0  0  0  0
  9 26  1  0  0  0  0
  9 27  1  0  0  0  0
 10 11  1  0  0  0  0
 10 28  1  0  0  0  0
 10 29  1  0  0  0  0
 11 12  1  0  0  0  0
 11 30  1  0  0  0  0
 11 31  1  0  0  0  0
 12 13  1  0  0  0  0
 12 16  2  0  0  0  0
 13 14  1  0  0  0  0
 14 15  2  0  0  0  0
 14 32  1  0  0  0  0
 15 16  1  0  0  0  0
 16 17  1  0  0  0  0
 17 33  1  0  0  0  0
 17 34  1  0  0  0  0
 17 35  1  0  0  0  0
M  END
$$$$
CHEMBL4569677
 OpenBabel01072218233D

 26 26  0  0  0  0  0  0  0  0999 V2000
    4.9660    3.4450   -1.3621 C   0  0  0  0  0  0  0  0  0  0  0  0
    4.5048    2.1665   -1.7749 O   0  0  0  0  0  0  0  0  0  0  0  0
    4.9065    1.1501   -0.8520 C   0  0  0  0  0  0  0  0  0  0  0  0
    4.4397   -0.2135   -1.3792 C   0  0  0  0  0  0  0  0  0  0  0  0
    4.9438   -0.5353   -2.7253 N   0  0  0  0  0  0  0  0  0  0  0  0
    6.4035   -0.5673   -2.7552 C   0  0  0  0  0  0  0  0  0  0  0  0
    6.8926   -0.8696   -4.1309 C   0  0  0  0  0  0  0  0  0  0  0  0
    7.2317    0.3998   -5.2345 S   0  0  0  0  0  0  0  0  0  0  0  0
    7.7157   -0.7668   -6.3862 C   0  0  0  0  0  0  0  0  0  0  0  0
    7.6492   -2.0224   -6.0115 N   0  0  0  0  0  0  0  0  0  0  0  0
    7.1659   -2.0923   -4.7144 C   0  0  0  0  0  0  0  0  0  0  0  0
    6.9965   -3.4247   -4.0780 C   0  0  0  0  0  0  0  0  0  0  0  0
    4.6300    4.1853   -2.0920 H   0  0  0  0  0  0  0  0  0  0  0  0
    6.0598    3.4619   -1.3234 H   0  0  0  0  0  0  0  0  0  0  0  0
    4.5494    3.6991   -0.3831 H   0  0  0  0  0  0  0  0  0  0  0  0
    4.4648    1.3427    0.1294 H   0  0  0  0  0  0  0  0  0  0  0  0
    5.9969    1.1690   -0.7328 H   0  0  0  0  0  0  0  0  0  0  0  0
    3.3437   -0.2096   -1.4389 H   0  0  0  0  0  0  0  0  0  0  0  0
    4.7163   -1.0076   -0.6748 H   0  0  0  0  0  0  0  0  0  0  0  0
    4.6337    0.2150   -3.3473 H   0  0  0  0  0  0  0  0  0  0  0  0
    6.7723   -1.3340   -2.0595 H   0  0  0  0  0  0  0  0  0  0  0  0
    6.8433    0.3840   -2.4449 H   0  0  0  0  0  0  0  0  0  0  0  0
    8.0635   -0.4748   -7.3699 H   0  0  0  0  0  0  0  0  0  0  0  0
    7.2900   -4.2318   -4.7681 H   0  0  0  0  0  0  0  0  0  0  0  0
    5.9512   -3.5847   -3.7959 H   0  0  0  0  0  0  0  0  0  0  0  0
    7.6179   -3.5056   -3.1818 H   0  0  0  0  0  0  0  0  0  0  0  0
  1  2  1  0  0  0  0
  1 13  1  0  0  0  0
  1 14  1  0  0  0  0
  1 15  1  0  0  0  0
  2  3  1  0  0  0  0
  3  4  1  0  0  0  0
  3 16  1  0  0  0  0
  3 17  1  0  0  0  0
  4  5  1  0  0  0  0
  4 18  1  0  0  0  0
  4 19  1  0  0  0  0
  5  6  1  0  0  0  0
  5 20  1  0  0  0  0
  6  7  1  0  0  0  0
  6 21  1  0  0  0  0
  6 22  1  0  0  0  0
  7  8  1  0  0  0  0
  7 11  2  0  0  0  0
  8  9  1  0  0  0  0
  9 10  2  0  0  0  0
  9 23  1  0  0  0  0
 10 11  1  0  0  0  0
 11 12  1  0  0  0  0
 12 24  1  0  0  0  0
 12 25  1  0  0  0  0
 12 26  1  0  0  0  0
M  END
$$$$
CHEMBL4516779
 OpenBabel01072218233D

 33 34  0  0  0  0  0  0  0  0999 V2000
   -4.1126    0.1210    0.2912 C   0  0  0  0  0  0  0  0  0  0  0  0
   -2.6896    0.2299    0.7118 C   0  0  0  0  0  0  0  0  0  0  0  0
   -2.1038    1.4882    0.6891 N   0  0  0  0  0  0  0  0  0  0  0  0
   -0.8595    1.4090    1.1004 C   0  0  0  0  0  0  0  0  0  0  0  0
   -0.3066   -0.1530    1.5245 S   0  0  0  0  0  0  0  0  0  0  0  0
   -1.8556   -0.7952    1.1373 C   0  0  0  0  0  0  0  0  0  0  0  0
   -2.1295   -2.2659    1.2933 C   0  0  0  0  0  0  0  0  0  0  0  0
   -1.7878   -3.0451    0.0136 C   0  0  0  0  0  0  0  0  0  0  0  0
   -1.9989   -4.4951    0.1301 N   0  0  0  0  0  0  0  0  0  0  0  0
   -0.8354   -5.3671    0.0185 C   0  0  0  0  0  0  0  0  0  0  0  0
   -3.3179   -4.9740    0.1348 C   0  0  0  0  0  0  0  0  0  0  0  0
   -4.2766   -4.2104    0.0154 O   0  0  0  0  0  0  0  0  0  0  0  0
   -3.6131   -6.4358    0.2709 C   0  0  0  0  0  0  0  0  0  0  0  0
   -4.8231   -6.9184   -0.2250 C   0  0  0  0  0  0  0  0  0  0  0  0
   -5.2138   -8.2174   -0.1000 N   0  0  0  0  0  0  0  0  0  0  0  0
   -4.3393   -8.9957    0.5569 C   0  0  0  0  0  0  0  0  0  0  0  0
   -4.7387  -10.2798    0.7108 O   0  0  0  0  0  0  0  0  0  0  0  0
   -3.1331   -8.5388    1.0571 C   0  0  0  0  0  0  0  0  0  0  0  0
   -2.7376   -7.2466    0.9256 N   0  0  0  0  0  0  0  0  0  0  0  0
   -4.5132    1.1004    0.0072 H   0  0  0  0  0  0  0  0  0  0  0  0
   -4.7269   -0.2674    1.1082 H   0  0  0  0  0  0  0  0  0  0  0  0
   -4.2098   -0.5421   -0.5736 H   0  0  0  0  0  0  0  0  0  0  0  0
   -0.2190    2.2787    1.1679 H   0  0  0  0  0  0  0  0  0  0  0  0
   -3.1828   -2.4085    1.5613 H   0  0  0  0  0  0  0  0  0  0  0  0
   -1.5516   -2.6687    2.1348 H   0  0  0  0  0  0  0  0  0  0  0  0
   -0.7464   -2.8555   -0.2691 H   0  0  0  0  0  0  0  0  0  0  0  0
   -2.4059   -2.6838   -0.8177 H   0  0  0  0  0  0  0  0  0  0  0  0
    0.0604   -4.7984   -0.2442 H   0  0  0  0  0  0  0  0  0  0  0  0
   -1.0128   -6.1083   -0.7673 H   0  0  0  0  0  0  0  0  0  0  0  0
   -0.6596   -5.8664    0.9745 H   0  0  0  0  0  0  0  0  0  0  0  0
   -5.5218   -6.2687   -0.7424 H   0  0  0  0  0  0  0  0  0  0  0  0
   -5.6191  -10.2411    0.2932 H   0  0  0  0  0  0  0  0  0  0  0  0
   -2.4573   -9.1996    1.5875 H   0  0  0  0  0  0  0  0  0  0  0  0
  1  2  1  0  0  0  0
  1 20  1  0  0  0  0
  1 21  1  0  0  0  0
  1 22  1  0  0  0  0
  2  3  1  0  0  0  0
  2  6  2  0  0  0  0
  3  4  2  0  0  0  0
  4  5  1  0  0  0  0
  4 23  1  0  0  0  0
  5  6  1  0  0  0  0
  6  7  1  0  0  0  0
  7  8  1  0  0  0  0
  7 24  1  0  0  0  0
  7 25  1  0  0  0  0
  8  9  1  0  0  0  0
  8 26  1  0  0  0  0
  8 27  1  0  0  0  0
  9 10  1  0  0  0  0
  9 11  1  0  0  0  0
 10 28  1  0  0  0  0
 10 29  1  0  0  0  0
 10 30  1  0  0  0  0
 11 12  2  0  0  0  0
 11 13  1  0  0  0  0
 13 14  1  0  0  0  0
 13 19  2  0  0  0  0
 14 15  2  0  0  0  0
 14 31  1  0  0  0  0
 15 16  1  0  0  0  0
 16 17  1  0  0  0  0
 16 18  2  0  0  0  0
 17 32  1  0  0  0  0
 18 19  1  0  0  0  0
 18 33  1  0  0  0  0
M  END
$$$$
CHEMBL4593083
 OpenBabel01072218233D

 39 39  0  0  0  0  0  0  0  0999 V2000
   -3.1023   -4.9852   -4.9819 C   0  0  0  0  0  0  0  0  0  0  0  0
   -1.9915   -4.0120   -4.8071 C   0  0  0  0  0  0  0  0  0  0  0  0
   -1.2210   -3.6990   -5.9169 N   0  0  0  0  0  0  0  0  0  0  0  0
   -0.3010   -2.8234   -5.5837 C   0  0  0  0  0  0  0  0  0  0  0  0
   -0.2911   -2.3231   -3.9491 S   0  0  0  0  0  0  0  0  0  0  0  0
   -1.6311   -3.3563   -3.6401 C   0  0  0  0  0  0  0  0  0  0  0  0
   -2.2344   -3.4290   -2.2666 C   0  0  0  0  0  0  0  0  0  0  0  0
   -1.5758   -4.5163   -1.4122 C   0  0  0  0  0  0  0  0  0  0  0  0
   -2.1138   -4.5416    0.0191 C   0  0  0  0  0  0  0  0  0  0  0  0
   -3.5190   -4.8748    0.1011 N   0  0  0  0  0  0  0  0  0  0  0  0
   -3.9685   -6.1830    0.0785 C   0  0  0  0  0  0  0  0  0  0  0  0
   -3.2263   -7.1538   -0.0467 O   0  0  0  0  0  0  0  0  0  0  0  0
   -5.4910   -6.3213    0.1087 C   0  0  0  0  0  0  0  0  0  0  0  0
   -6.0003   -6.4344   -1.2457 N   0  0  0  0  0  0  0  0  0  0  0  0
   -6.2520   -5.3102   -1.9817 C   0  0  0  0  0  0  0  0  0  0  0  0
   -6.0970   -4.1914   -1.4866 O   0  0  0  0  0  0  0  0  0  0  0  0
   -6.7034   -5.5058   -3.2714 N   0  0  0  0  0  0  0  0  0  0  0  0
   -6.8499   -6.7801   -3.9662 C   0  0  0  0  0  0  0  0  0  0  0  0
   -7.1095   -4.3411   -4.0471 C   0  0  0  0  0  0  0  0  0  0  0  0
   -3.1608   -5.3300   -6.0204 H   0  0  0  0  0  0  0  0  0  0  0  0
   -4.0569   -4.5197   -4.7269 H   0  0  0  0  0  0  0  0  0  0  0  0
   -2.9538   -5.8588   -4.3424 H   0  0  0  0  0  0  0  0  0  0  0  0
    0.4125   -2.4361   -6.3015 H   0  0  0  0  0  0  0  0  0  0  0  0
   -3.3096   -3.6253   -2.3603 H   0  0  0  0  0  0  0  0  0  0  0  0
   -2.1430   -2.4577   -1.7673 H   0  0  0  0  0  0  0  0  0  0  0  0
   -0.4940   -4.3409   -1.3663 H   0  0  0  0  0  0  0  0  0  0  0  0
   -1.7164   -5.4961   -1.8838 H   0  0  0  0  0  0  0  0  0  0  0  0
   -1.9836   -3.5665    0.4995 H   0  0  0  0  0  0  0  0  0  0  0  0
   -1.5500   -5.2781    0.6032 H   0  0  0  0  0  0  0  0  0  0  0  0
   -4.2129   -4.1514   -0.0770 H   0  0  0  0  0  0  0  0  0  0  0  0
   -5.9486   -5.4736    0.6288 H   0  0  0  0  0  0  0  0  0  0  0  0
   -5.7481   -7.2370    0.6480 H   0  0  0  0  0  0  0  0  0  0  0  0
   -5.7288   -7.2708   -1.7313 H   0  0  0  0  0  0  0  0  0  0  0  0
   -6.5672   -7.6452   -3.3677 H   0  0  0  0  0  0  0  0  0  0  0  0
   -6.2184   -6.7581   -4.8604 H   0  0  0  0  0  0  0  0  0  0  0  0
   -7.8938   -6.8978   -4.2681 H   0  0  0  0  0  0  0  0  0  0  0  0
   -7.0068   -3.4071   -3.4885 H   0  0  0  0  0  0  0  0  0  0  0  0
   -8.1587   -4.4616   -4.3335 H   0  0  0  0  0  0  0  0  0  0  0  0
   -6.4934   -4.2829   -4.9483 H   0  0  0  0  0  0  0  0  0  0  0  0
  1  2  1  0  0  0  0
  1 20  1  0  0  0  0
  1 21  1  0  0  0  0
  1 22  1  0  0  0  0
  2  3  1  0  0  0  0
  2  6  2  0  0  0  0
  3  4  2  0  0  0  0
  4  5  1  0  0  0  0
  4 23  1  0  0  0  0
  5  6  1  0  0  0  0
  6  7  1  0  0  0  0
  7  8  1  0  0  0  0
  7 24  1  0  0  0  0
  7 25  1  0  0  0  0
  8  9  1  0  0  0  0
  8 26  1  0  0  0  0
  8 27  1  0  0  0  0
  9 10  1  0  0  0  0
  9 28  1  0  0  0  0
  9 29  1  0  0  0  0
 10 11  1  0  0  0  0
 10 30  1  0  0  0  0
 11 12  2  0  0  0  0
 11 13  1  0  0  0  0
 13 14  1  0  0  0  0
 13 31  1  0  0  0  0
 13 32  1  0  0  0  0
 14 15  1  0  0  0  0
 14 33  1  0  0  0  0
 15 16  2  0  0  0  0
 15 17  1  0  0  0  0
 17 18  1  0  0  0  0
 17 19  1  0  0  0  0
 18 34  1  0  0  0  0
 18 35  1  0  0  0  0
 18 36  1  0  0  0  0
 19 37  1  0  0  0  0
 19 38  1  0  0  0  0
 19 39  1  0  0  0  0
M  END
$$$$
CHEMBL365225
 OpenBabel01072218233D

 25 26  0  0  0  0  0  0  0  0999 V2000
    2.2074    1.1056    0.3467 O   0  0  0  0  0  0  0  0  0  0  0  0
    2.0511   -0.0806    0.0772 C   0  0  0  0  0  0  0  0  0  0  0  0
    1.0876   -0.6236   -0.7376 N   0  0  0  0  0  0  0  0  0  0  0  0
    0.1074    0.1362   -1.3019 C   0  0  0  0  0  0  0  0  0  0  0  0
   -0.1719    1.3965   -1.0912 N   0  0  0  0  0  0  0  0  0  0  0  0
   -1.2356    1.7713   -1.8842 C   0  0  0  0  0  0  0  0  0  0  0  0
   -1.7389    0.7837   -2.7041 C   0  0  0  0  0  0  0  0  0  0  0  0
   -0.8833   -0.6811   -2.4271 S   0  0  0  0  0  0  0  0  0  0  0  0
    2.9449   -1.1147    0.6279 C   0  0  0  0  0  0  0  0  0  0  0  0
    2.6786   -2.4736    0.3970 N   0  0  0  0  0  0  0  0  0  0  0  0
    3.5841   -3.2103    1.0022 C   0  0  0  0  0  0  0  0  0  0  0  0
    4.8043   -2.3662    1.8471 S   0  0  0  0  0  0  0  0  0  0  0  0
    4.0779   -0.8708    1.3986 C   0  0  0  0  0  0  0  0  0  0  0  0
    4.7147    0.4250    1.8271 C   0  0  0  0  0  0  0  0  0  0  0  0
    4.0770    1.0297    3.0778 C   0  0  0  0  0  0  0  0  0  0  0  0
    4.2318    0.1794    4.2113 O   0  0  0  0  0  0  0  0  0  0  0  0
    1.1227   -1.6171   -0.9321 H   0  0  0  0  0  0  0  0  0  0  0  0
   -1.6002    2.7900   -1.8288 H   0  0  0  0  0  0  0  0  0  0  0  0
   -2.5460    0.8505   -3.4192 H   0  0  0  0  0  0  0  0  0  0  0  0
    3.5652   -4.2917    0.9742 H   0  0  0  0  0  0  0  0  0  0  0  0
    4.6580    1.1505    1.0068 H   0  0  0  0  0  0  0  0  0  0  0  0
    5.7842    0.2635    2.0125 H   0  0  0  0  0  0  0  0  0  0  0  0
    3.0129    1.2459    2.9425 H   0  0  0  0  0  0  0  0  0  0  0  0
    4.5817    1.9713    3.3176 H   0  0  0  0  0  0  0  0  0  0  0  0
    3.4659   -0.4211    4.2197 H   0  0  0  0  0  0  0  0  0  0  0  0
  1  2  2  0  0  0  0
  2  3  1  0  0  0  0
  2  9  1  0  0  0  0
  3  4  1  0  0  0  0
  3 17  1  0  0  0  0
  4  5  2  0  0  0  0
  4  8  1  0  0  0  0
  5  6  1  0  0  0  0
  6  7  2  0  0  0  0
  6 18  1  0  0  0  0
  7  8  1  0  0  0  0
  7 19  1  0  0  0  0
  9 10  1  0  0  0  0
  9 13  2  0  0  0  0
 10 11  2  0  0  0  0
 11 12  1  0  0  0  0
 11 20  1  0  0  0  0
 12 13  1  0  0  0  0
 13 14  1  0  0  0  0
 14 15  1  0  0  0  0
 14 21  1  0  0  0  0
 14 22  1  0  0  0  0
 15 16  1  0  0  0  0
 15 23  1  0  0  0  0
 15 24  1  0  0  0  0
 16 25  1  0  0  0  0
M  END
$$$$
CHEMBL3306931
 OpenBabel01072218233D

 22 22  0  0  0  0  0  0  0  0999 V2000
    1.1038    0.1738   -0.0455 C   0  0  0  0  0  0  0  0  0  0  0  0
    2.5746   -0.0252   -0.0566 C   0  0  0  0  0  0  0  0  0  0  0  0
    3.2961   -1.2056   -0.0824 C   0  0  0  0  0  0  0  0  0  0  0  0
    2.8361   -2.6415   -0.1020 C   0  0  0  0  0  0  0  0  0  0  0  0
    2.6651   -3.2278    1.3006 C   0  0  0  0  0  0  0  0  0  0  0  0
    3.8923   -3.2115    2.0187 O   0  0  0  0  0  0  0  0  0  0  0  0
    4.9844   -0.8537   -0.1146 S   0  0  0  0  0  0  0  0  0  0  0  0
    4.7004    0.8254   -0.0608 C   0  0  0  0  0  0  0  0  0  0  0  0
    3.4062    1.0914   -0.0513 N   0  3  0  0  0  0  0  0  0  0  0  0
    2.9270    2.4690   -0.0460 C   0  0  0  0  0  0  0  0  0  0  0  0
    0.5668   -0.7786   -0.0367 H   0  0  0  0  0  0  0  0  0  0  0  0
    0.7843    0.7249   -0.9363 H   0  0  0  0  0  0  0  0  0  0  0  0
    0.7947    0.7347    0.8422 H   0  0  0  0  0  0  0  0  0  0  0  0
    3.5582   -3.2474   -0.6634 H   0  0  0  0  0  0  0  0  0  0  0  0
    1.8830   -2.7108   -0.6390 H   0  0  0  0  0  0  0  0  0  0  0  0
    2.3143   -4.2641    1.2417 H   0  0  0  0  0  0  0  0  0  0  0  0
    1.9318   -2.6563    1.8780 H   0  0  0  0  0  0  0  0  0  0  0  0
    4.4396   -3.9524    1.7002 H   0  0  0  0  0  0  0  0  0  0  0  0
    5.4912    1.5655   -0.0526 H   0  0  0  0  0  0  0  0  0  0  0  0
    3.7650    3.1749   -0.0452 H   0  0  0  0  0  0  0  0  0  0  0  0
    2.3252    2.6452    0.8497 H   0  0  0  0  0  0  0  0  0  0  0  0
    2.3275    2.6489   -0.9435 H   0  0  0  0  0  0  0  0  0  0  0  0
  1  2  1  0  0  0  0
  1 11  1  0  0  0  0
  1 12  1  0  0  0  0
  1 13  1  0  0  0  0
  2  3  2  0  0  0  0
  2  9  1  0  0  0  0
  3  4  1  0  0  0  0
  3  7  1  0  0  0  0
  4  5  1  0  0  0  0
  4 14  1  0  0  0  0
  4 15  1  0  0  0  0
  5  6  1  0  0  0  0
  5 16  1  0  0  0  0
  5 17  1  0  0  0  0
  6 18  1  0  0  0  0
  7  8  1  0  0  0  0
  8  9  2  0  0  0  0
  8 19  1  0  0  0  0
  9 10  1  0  0  0  0
 10 20  1  0  0  0  0
 10 21  1  0  0  0  0
 10 22  1  0  0  0  0
M  CHG  1   9   1
M  END
$$$$
CHEMBL1402698
 OpenBabel01072218233D

 14 14  0  0  0  0  0  0  0  0999 V2000
   -2.5829   -0.3676   -0.0135 C   0  0  0  0  0  0  0  0  0  0  0  0
   -1.1095   -0.1502   -0.0039 C   0  0  0  0  0  0  0  0  0  0  0  0
   -0.6485    1.1593   -0.0071 N   0  0  0  0  0  0  0  0  0  0  0  0
    0.6633    1.1724    0.0024 C   0  0  0  0  0  0  0  0  0  0  0  0
    1.4260   -0.3573    0.0153 S   0  0  0  0  0  0  0  0  0  0  0  0
   -0.1158   -1.1204    0.0077 C   0  0  0  0  0  0  0  0  0  0  0  0
   -0.2683   -2.5608    0.0135 C   0  0  0  0  0  0  0  0  0  0  0  0
   -1.3326   -3.1624    0.0106 O   0  0  0  0  0  0  0  0  0  0  0  0
    0.9174   -3.2263    0.0225 O   0  0  0  0  0  0  0  0  0  0  0  0
   -3.1144    0.5898   -0.0255 H   0  0  0  0  0  0  0  0  0  0  0  0
   -2.8989   -0.9153    0.8796 H   0  0  0  0  0  0  0  0  0  0  0  0
   -2.8855   -0.9302   -0.9018 H   0  0  0  0  0  0  0  0  0  0  0  0
    1.2303    2.0943    0.0007 H   0  0  0  0  0  0  0  0  0  0  0  0
    1.6807   -2.6167    0.0243 H   0  0  0  0  0  0  0  0  0  0  0  0
  1  2  1  0  0  0  0
  1 10  1  0  0  0  0
  1 11  1  0  0  0  0
  1 12  1  0  0  0  0
  2  3  1  0  0  0  0
  2  6  2  0  0  0  0
  3  4  2  0  0  0  0
  4  5  1  0  0  0  0
  4 13  1  0  0  0  0
  5  6  1  0  0  0  0
  6  7  1  0  0  0  0
  7  8  2  0  0  0  0
  7  9  1  0  0  0  0
  9 14  1  0  0  0  0
M  END
$$$$
CHEMBL2172683
 OpenBabel01072218233D

 33 35  0  0  0  0  0  0  0  0999 V2000
   -3.8990    0.1151   -1.2276 C   0  0  0  0  0  0  0  0  0  0  0  0
   -3.0278    0.2573   -0.0292 C   0  0  0  0  0  0  0  0  0  0  0  0
   -2.5958    1.5339    0.2985 N   0  0  0  0  0  0  0  0  0  0  0  0
   -1.8595    1.4951    1.3841 C   0  0  0  0  0  0  0  0  0  0  0  0
   -1.6103   -0.0521    2.0661 S   0  0  0  0  0  0  0  0  0  0  0  0
   -2.5832   -0.7425    0.8261 C   0  0  0  0  0  0  0  0  0  0  0  0
   -2.8432   -2.2197    0.8162 C   0  0  0  0  0  0  0  0  0  0  0  0
   -1.7818   -2.9851    0.0212 C   0  0  0  0  0  0  0  0  0  0  0  0
   -1.9761   -4.4200    0.0261 N   0  0  0  0  0  0  0  0  0  0  0  0
   -1.0162   -5.3851   -0.0512 C   0  0  0  0  0  0  0  0  0  0  0  0
   -1.7274   -6.5637    0.0056 C   0  0  0  0  0  0  0  0  0  0  0  0
   -1.1799   -7.9042   -0.0126 C   0  0  0  0  0  0  0  0  0  0  0  0
   -1.8666   -8.9473    0.6244 C   0  0  0  0  0  0  0  0  0  0  0  0
   -1.3426  -10.2428    0.6264 C   0  0  0  0  0  0  0  0  0  0  0  0
   -0.1365  -10.5092   -0.0174 C   0  0  0  0  0  0  0  0  0  0  0  0
    0.5486   -9.4830   -0.6661 C   0  0  0  0  0  0  0  0  0  0  0  0
    0.0299   -8.1864   -0.6616 C   0  0  0  0  0  0  0  0  0  0  0  0
   -3.0639   -6.2767    0.1076 N   0  0  0  0  0  0  0  0  0  0  0  0
   -3.2061   -4.9578    0.0898 N   0  0  0  0  0  0  0  0  0  0  0  0
   -4.0872    1.0926   -1.6860 H   0  0  0  0  0  0  0  0  0  0  0  0
   -4.8663   -0.3188   -0.9574 H   0  0  0  0  0  0  0  0  0  0  0  0
   -3.4218   -0.5206   -1.9792 H   0  0  0  0  0  0  0  0  0  0  0  0
   -1.4313    2.3865    1.8230 H   0  0  0  0  0  0  0  0  0  0  0  0
   -3.8414   -2.4038    0.3989 H   0  0  0  0  0  0  0  0  0  0  0  0
   -2.8735   -2.6007    1.8466 H   0  0  0  0  0  0  0  0  0  0  0  0
   -0.7837   -2.7938    0.4302 H   0  0  0  0  0  0  0  0  0  0  0  0
   -1.7787   -2.6737   -1.0313 H   0  0  0  0  0  0  0  0  0  0  0  0
    0.0378   -5.1626   -0.1198 H   0  0  0  0  0  0  0  0  0  0  0  0
   -2.8104   -8.7541    1.1315 H   0  0  0  0  0  0  0  0  0  0  0  0
   -1.8786  -11.0424    1.1329 H   0  0  0  0  0  0  0  0  0  0  0  0
    0.2680  -11.5181   -0.0196 H   0  0  0  0  0  0  0  0  0  0  0  0
    1.4844   -9.6914   -1.1781 H   0  0  0  0  0  0  0  0  0  0  0  0
    0.5743   -7.4058   -1.1869 H   0  0  0  0  0  0  0  0  0  0  0  0
  1  2  1  0  0  0  0
  1 20  1  0  0  0  0
  1 21  1  0  0  0  0
  1 22  1  0  0  0  0
  2  3  1  0  0  0  0
  2  6  2  0  0  0  0
  3  4  2  0  0  0  0
  4  5  1  0  0  0  0
  4 23  1  0  0  0  0
  5  6  1  0  0  0  0
  6  7  1  0  0  0  0
  7  8  1  0  0  0  0
  7 24  1  0  0  0  0
  7 25  1  0  0  0  0
  8  9  1  0  0  0  0
  8 26  1  0  0  0  0
  8 27  1  0  0  0  0
  9 10  1  0  0  0  0
  9 19  1  0  0  0  0
 10 11  2  0  0  0  0
 10 28  1  0  0  0  0
 11 12  1  0  0  0  0
 11 18  1  0  0  0  0
 12 13  1  0  0  0  0
 12 17  2  0  0  0  0
 13 14  2  0  0  0  0
 13 29  1  0  0  0  0
 14 15  1  0  0  0  0
 14 30  1  0  0  0  0
 15 16  2  0  0  0  0
 15 31  1  0  0  0  0
 16 17  1  0  0  0  0
 16 32  1  0  0  0  0
 17 33  1  0  0  0  0
 18 19  2  0  0  0  0
M  END
$$$$
CHEMBL1190174
 OpenBabel01072218243D

 19 19  0  0  0  0  0  0  0  0999 V2000
   -2.5999   -0.1631   -0.0117 C   0  0  0  0  0  0  0  0  0  0  0  0
   -1.1168   -0.0484    0.0085 C   0  0  0  0  0  0  0  0  0  0  0  0
   -0.5686    1.2252    0.0057 N   0  0  0  0  0  0  0  0  0  0  0  0
    0.7436    1.1461    0.0081 C   0  0  0  0  0  0  0  0  0  0  0  0
    1.4006   -0.4319    0.0308 S   0  0  0  0  0  0  0  0  0  0  0  0
   -0.1919   -1.0832    0.0236 C   0  0  0  0  0  0  0  0  0  0  0  0
   -0.3984   -2.5689    0.0122 C   0  0  0  0  0  0  0  0  0  0  0  0
   -0.4473   -3.1557    1.4286 C   0  0  0  0  0  0  0  0  0  0  0  0
   -0.5879   -4.6115    1.3961 N   0  0  0  0  0  0  0  0  0  0  0  0
   -3.0678    0.8276   -0.0172 H   0  0  0  0  0  0  0  0  0  0  0  0
   -2.9570   -0.6993    0.8724 H   0  0  0  0  0  0  0  0  0  0  0  0
   -2.9326   -0.6968   -0.9071 H   0  0  0  0  0  0  0  0  0  0  0  0
    1.3742    2.0242   -0.0044 H   0  0  0  0  0  0  0  0  0  0  0  0
    0.4058   -3.0501   -0.5595 H   0  0  0  0  0  0  0  0  0  0  0  0
   -1.3303   -2.8018   -0.5168 H   0  0  0  0  0  0  0  0  0  0  0  0
   -1.2850   -2.7258    1.9907 H   0  0  0  0  0  0  0  0  0  0  0  0
    0.4698   -2.9070    1.9750 H   0  0  0  0  0  0  0  0  0  0  0  0
   -1.4816   -4.8669    0.9786 H   0  0  0  0  0  0  0  0  0  0  0  0
   -0.6057   -4.9708    2.3503 H   0  0  0  0  0  0  0  0  0  0  0  0
  1  2  1  0  0  0  0
  1 10  1  0  0  0  0
  1 11  1  0  0  0  0
  1 12  1  0  0  0  0
  2  3  1  0  0  0  0
  2  6  2  0  0  0  0
  3  4  2  0  0  0  0
  4  5  1  0  0  0  0
  4 13  1  0  0  0  0
  5  6  1  0  0  0  0
  6  7  1  0  0  0  0
  7  8  1  0  0  0  0
  7 14  1  0  0  0  0
  7 15  1  0  0  0  0
  8  9  1  0  0  0  0
  8 16  1  0  0  0  0
  8 17  1  0  0  0  0
  9 18  1  0  0  0  0
  9 19  1  0  0  0  0
M  END
$$$$
CHEMBL1625135
 OpenBabel01072218243D

 44 47  0  0  1  0  0  0  0  0999 V2000
   -1.2525   -0.3247    0.8841 C   0  0  0  0  0  0  0  0  0  0  0  0
   -1.4024    0.0419   -0.5508 C   0  0  0  0  0  0  0  0  0  0  0  0
   -1.4555    1.3896   -0.8723 N   0  0  0  0  0  0  0  0  0  0  0  0
   -1.5895    1.5351   -2.1702 C   0  0  0  0  0  0  0  0  0  0  0  0
   -1.6692    0.0908   -3.0832 S   0  0  0  0  0  0  0  0  0  0  0  0
   -1.5115   -0.8206   -1.6330 C   0  0  0  0  0  0  0  0  0  0  0  0
   -1.5326   -2.3229   -1.6731 C   0  0  0  0  0  0  0  0  0  0  0  0
   -2.9526   -2.8457   -1.4704 C   0  0  0  0  0  0  0  0  0  0  0  0
   -3.0794   -4.2759   -1.5471 O   0  0  0  0  0  0  0  0  0  0  0  0
   -2.7925   -4.9354   -0.3889 C   0  0  0  0  0  0  0  0  0  0  0  0
   -1.8272   -4.6866    0.3194 O   0  0  0  0  0  0  0  0  0  0  0  0
   -3.9168   -5.9152   -0.0638 C   0  0  3  0  0  0  0  0  0  0  0  0
   -5.2271   -5.1300    0.1881 C   0  0  3  0  0  0  0  0  0  0  0  0
   -6.3916   -6.1288    0.2936 C   0  0  0  0  0  0  0  0  0  0  0  0
   -6.1563   -7.0889    1.4697 C   0  0  3  0  0  0  0  0  0  0  0  0
   -6.0707   -6.2690    2.7680 C   0  0  0  0  0  0  0  0  0  0  0  0
   -4.8924   -5.2848    2.6893 C   0  0  3  0  0  0  0  0  0  0  0  0
   -5.1152   -4.3321    1.5053 C   0  0  0  0  0  0  0  0  0  0  0  0
   -3.5898   -6.0705    2.4720 C   0  0  0  0  0  0  0  0  0  0  0  0
   -3.6515   -6.8524    1.1436 C   0  0  3  0  0  0  0  0  0  0  0  0
   -4.8310   -7.8487    1.2519 C   0  0  0  0  0  0  0  0  0  0  0  0
   -1.1585    0.5704    1.5067 H   0  0  0  0  0  0  0  0  0  0  0  0
   -0.3568   -0.9344    1.0336 H   0  0  0  0  0  0  0  0  0  0  0  0
   -2.1248   -0.8865    1.2309 H   0  0  0  0  0  0  0  0  0  0  0  0
   -1.6490    2.5093   -2.6380 H   0  0  0  0  0  0  0  0  0  0  0  0
   -0.8616   -2.7171   -0.9026 H   0  0  0  0  0  0  0  0  0  0  0  0
   -1.1350   -2.6976   -2.6243 H   0  0  0  0  0  0  0  0  0  0  0  0
   -3.6088   -2.4485   -2.2540 H   0  0  0  0  0  0  0  0  0  0  0  0
   -3.3722   -2.4939   -0.5193 H   0  0  0  0  0  0  0  0  0  0  0  0
   -4.0256   -6.5473   -0.9582 H   0  0  0  0  0  0  0  0  0  0  0  0
   -5.4304   -4.4355   -0.6343 H   0  0  0  0  0  0  0  0  0  0  0  0
   -6.4853   -6.6949   -0.6413 H   0  0  0  0  0  0  0  0  0  0  0  0
   -7.3344   -5.5863    0.4325 H   0  0  0  0  0  0  0  0  0  0  0  0
   -6.9869   -7.8005    1.5372 H   0  0  0  0  0  0  0  0  0  0  0  0
   -5.9465   -6.9371    3.6287 H   0  0  0  0  0  0  0  0  0  0  0  0
   -7.0058   -5.7171    2.9260 H   0  0  0  0  0  0  0  0  0  0  0  0
   -4.8264   -4.7110    3.6205 H   0  0  0  0  0  0  0  0  0  0  0  0
   -4.2908   -3.6119    1.4518 H   0  0  0  0  0  0  0  0  0  0  0  0
   -6.0290   -3.7465    1.6621 H   0  0  0  0  0  0  0  0  0  0  0  0
   -3.4358   -6.7690    3.3048 H   0  0  0  0  0  0  0  0  0  0  0  0
   -2.7338   -5.3890    2.4869 H   0  0  0  0  0  0  0  0  0  0  0  0
   -2.7151   -7.4027    0.9996 H   0  0  0  0  0  0  0  0  0  0  0  0
   -4.6621   -8.5417    2.0851 H   0  0  0  0  0  0  0  0  0  0  0  0
   -4.8951   -8.4571    0.3416 H   0  0  0  0  0  0  0  0  0  0  0  0
  1  2  1  0  0  0  0
  1 22  1  0  0  0  0
  1 23  1  0  0  0  0
  1 24  1  0  0  0  0
  2  3  1  0  0  0  0
  2  6  2  0  0  0  0
  3  4  2  0  0  0  0
  4  5  1  0  0  0  0
  4 25  1  0  0  0  0
  5  6  1  0  0  0  0
  6  7  1  0  0  0  0
  7  8  1  0  0  0  0
  7 26  1  0  0  0  0
  7 27  1  0  0  0  0
  8  9  1  0  0  0  0
  8 28  1  0  0  0  0
  8 29  1  0  0  0  0
  9 10  1  0  0  0  0
 10 11  2  0  0  0  0
 10 12  1  0  0  0  0
 12 13  1  0  0  0  0
 12 20  1  0  0  0  0
 12 30  1  0  0  0  0
 13 14  1  0  0  0  0
 13 18  1  0  0  0  0
 13 31  1  0  0  0  0
 14 15  1  0  0  0  0
 14 32  1  0  0  0  0
 14 33  1  0  0  0  0
 15 16  1  0  0  0  0
 15 21  1  0  0  0  0
 15 34  1  0  0  0  0
 16 17  1  0  0  0  0
 16 35  1  0  0  0  0
 16 36  1  0  0  0  0
 17 18  1  0  0  0  0
 17 19  1  0  0  0  0
 17 37  1  0  0  0  0
 18 38  1  0  0  0  0
 18 39  1  0  0  0  0
 19 20  1  0  0  0  0
 19 40  1  0  0  0  0
 19 41  1  0  0  0  0
 20 21  1  0  0  0  0
 20 42  1  0  0  0  0
 21 43  1  0  0  0  0
 21 44  1  0  0  0  0
M  END
$$$$
CHEMBL3228122
 OpenBabel01072218243D

 18 18  0  0  0  0  0  0  0  0999 V2000
    1.2659    0.1107   -0.0805 C   0  0  0  0  0  0  0  0  0  0  0  0
    2.7542    0.1157   -0.1020 C   0  0  0  0  0  0  0  0  0  0  0  0
    3.4089   -1.1054   -0.1293 N   0  0  0  0  0  0  0  0  0  0  0  0
    4.7065   -0.9164   -0.1212 C   0  0  0  0  0  0  0  0  0  0  0  0
    5.5480   -1.9193   -0.1279 F   0  0  0  0  0  0  0  0  0  0  0  0
    5.2304    0.7056   -0.1078 S   0  0  0  0  0  0  0  0  0  0  0  0
    3.5905    1.2243   -0.0961 C   0  0  0  0  0  0  0  0  0  0  0  0
    3.2512    2.6862   -0.0628 C   0  0  0  0  0  0  0  0  0  0  0  0
    3.1882    3.3065   -1.4580 C   0  0  0  0  0  0  0  0  0  0  0  0
    2.0890    2.7938   -2.2038 O   0  0  0  0  0  0  0  0  0  0  0  0
    0.8802   -0.9139   -0.0625 H   0  0  0  0  0  0  0  0  0  0  0  0
    0.8635    0.6047   -0.9698 H   0  0  0  0  0  0  0  0  0  0  0  0
    0.8920    0.6279    0.8082 H   0  0  0  0  0  0  0  0  0  0  0  0
    3.9958    3.2250    0.5359 H   0  0  0  0  0  0  0  0  0  0  0  0
    2.2848    2.8165    0.4394 H   0  0  0  0  0  0  0  0  0  0  0  0
    4.1083    3.1421   -2.0287 H   0  0  0  0  0  0  0  0  0  0  0  0
    3.0392    4.3868   -1.3677 H   0  0  0  0  0  0  0  0  0  0  0  0
    2.3247    1.8899   -2.4794 H   0  0  0  0  0  0  0  0  0  0  0  0
  1  2  1  0  0  0  0
  1 11  1  0  0  0  0
  1 12  1  0  0  0  0
  1 13  1  0  0  0  0
  2  3  1  0  0  0  0
  2  7  2  0  0  0  0
  3  4  2  0  0  0  0
  4  5  1  0  0  0  0
  4  6  1  0  0  0  0
  6  7  1  0  0  0  0
  7  8  1  0  0  0  0
  8  9  1  0  0  0  0
  8 14  1  0  0  0  0
  8 15  1  0  0  0  0
  9 10  1  0  0  0  0
  9 16  1  0  0  0  0
  9 17  1  0  0  0  0
 10 18  1  0  0  0  0
M  END
$$$$
CHEMBL4570627
 OpenBabel01072218243D

 29 30  0  0  0  0  0  0  0  0999 V2000
   -0.2446   -0.2212    2.3765 C   0  0  0  0  0  0  0  0  0  0  0  0
   -0.2106   -0.0427    0.9020 C   0  0  0  0  0  0  0  0  0  0  0  0
   -0.1199    1.2492    0.4073 N   0  0  0  0  0  0  0  0  0  0  0  0
   -0.0838    1.2268   -0.9042 C   0  0  0  0  0  0  0  0  0  0  0  0
   -0.1702   -0.3207   -1.6301 S   0  0  0  0  0  0  0  0  0  0  0  0
   -0.2568   -1.0364   -0.0694 C   0  0  0  0  0  0  0  0  0  0  0  0
   -0.3560   -2.5284    0.0760 C   0  0  0  0  0  0  0  0  0  0  0  0
   -1.8180   -2.9993    0.0824 C   0  0  0  0  0  0  0  0  0  0  0  0
   -1.9681   -4.4610    0.1532 N   0  0  0  0  0  0  0  0  0  0  0  0
   -2.6372   -5.1284   -0.9578 C   0  0  0  0  0  0  0  0  0  0  0  0
   -1.6932   -5.0999    1.3740 C   0  0  0  0  0  0  0  0  0  0  0  0
   -1.3550   -4.4455    2.3635 O   0  0  0  0  0  0  0  0  0  0  0  0
   -1.8447   -6.5518    1.4926 C   0  0  0  0  0  0  0  0  0  0  0  0
   -2.0884   -7.2675    2.6745 C   0  0  0  0  0  0  0  0  0  0  0  0
   -2.1613   -8.5730    2.4269 N   0  0  0  0  0  0  0  0  0  0  0  0
   -1.9242   -8.6805    1.0604 O   0  0  0  0  0  0  0  0  0  0  0  0
   -1.7215   -7.4301    0.4867 N   0  0  0  0  0  0  0  0  0  0  0  0
   -0.1811    0.7489    2.8863 H   0  0  0  0  0  0  0  0  0  0  0  0
    0.5985   -0.8306    2.7127 H   0  0  0  0  0  0  0  0  0  0  0  0
   -1.1772   -0.7017    2.6875 H   0  0  0  0  0  0  0  0  0  0  0  0
   -0.0050    2.1309   -1.4958 H   0  0  0  0  0  0  0  0  0  0  0  0
    0.1520   -2.8358    0.9970 H   0  0  0  0  0  0  0  0  0  0  0  0
    0.1851   -3.0234   -0.7415 H   0  0  0  0  0  0  0  0  0  0  0  0
   -2.3275   -2.6308   -0.8144 H   0  0  0  0  0  0  0  0  0  0  0  0
   -2.3485   -2.5667    0.9404 H   0  0  0  0  0  0  0  0  0  0  0  0
   -3.0188   -4.4055   -1.6844 H   0  0  0  0  0  0  0  0  0  0  0  0
   -3.4844   -5.7079   -0.5789 H   0  0  0  0  0  0  0  0  0  0  0  0
   -1.9267   -5.7857   -1.4658 H   0  0  0  0  0  0  0  0  0  0  0  0
   -2.2290   -6.8989    3.6796 H   0  0  0  0  0  0  0  0  0  0  0  0
  1  2  1  0  0  0  0
  1 18  1  0  0  0  0
  1 19  1  0  0  0  0
  1 20  1  0  0  0  0
  2  3  1  0  0  0  0
  2  6  2  0  0  0  0
  3  4  2  0  0  0  0
  4  5  1  0  0  0  0
  4 21  1  0  0  0  0
  5  6  1  0  0  0  0
  6  7  1  0  0  0  0
  7  8  1  0  0  0  0
  7 22  1  0  0  0  0
  7 23  1  0  0  0  0
  8  9  1  0  0  0  0
  8 24  1  0  0  0  0
  8 25  1  0  0  0  0
  9 10  1  0  0  0  0
  9 11  1  0  0  0  0
 10 26  1  0  0  0  0
 10 27  1  0  0  0  0
 10 28  1  0  0  0  0
 11 12  2  0  0  0  0
 11 13  1  0  0  0  0
 13 14  1  0  0  0  0
 13 17  2  0  0  0  0
 14 15  2  0  0  0  0
 14 29  1  0  0  0  0
 15 16  1  0  0  0  0
 16 17  1  0  0  0  0
M  END
$$$$
CHEMBL4525811
 OpenBabel01072218243D

 41 42  0  0  1  0  0  0  0  0999 V2000
   -4.2968   -0.1037   -0.6977 C   0  0  0  0  0  0  0  0  0  0  0  0
   -3.1458    0.2160    0.1938 C   0  0  0  0  0  0  0  0  0  0  0  0
   -2.7058    1.5300    0.2467 N   0  0  0  0  0  0  0  0  0  0  0  0
   -1.7163    1.6359    1.1030 C   0  0  0  0  0  0  0  0  0  0  0  0
   -1.2175    0.1850    1.8601 S   0  0  0  0  0  0  0  0  0  0  0  0
   -2.4543   -0.6627    1.0197 C   0  0  0  0  0  0  0  0  0  0  0  0
   -2.6820   -2.1260    1.2690 C   0  0  0  0  0  0  0  0  0  0  0  0
   -1.8848   -3.0132    0.3016 C   0  0  0  0  0  0  0  0  0  0  0  0
   -1.9406   -4.4628    0.5640 N   0  0  0  0  0  0  0  0  0  0  0  0
   -0.7302   -5.2081    0.2340 C   0  0  0  0  0  0  0  0  0  0  0  0
   -3.1993   -5.0832    0.5546 C   0  0  0  0  0  0  0  0  0  0  0  0
   -4.2519   -4.4563    0.6706 O   0  0  0  0  0  0  0  0  0  0  0  0
   -3.2389   -6.5943    0.3597 C   0  0  1  0  0  0  0  0  0  0  0  0
   -3.0923   -7.4012    1.6523 C   0  0  0  0  0  0  0  0  0  0  0  0
   -2.8884   -8.8807    1.2966 C   0  0  0  0  0  0  0  0  0  0  0  0
   -3.9687   -9.4325    0.3534 C   0  0  1  0  0  0  0  0  0  0  0  0
   -5.1418   -9.7347    1.1048 O   0  0  0  0  0  0  0  0  0  0  0  0
   -4.3316   -8.4957   -0.8057 C   0  0  0  0  0  0  0  0  0  0  0  0
   -4.5136   -7.0460   -0.3562 C   0  0  0  0  0  0  0  0  0  0  0  0
   -4.6619    0.7976   -1.2043 H   0  0  0  0  0  0  0  0  0  0  0  0
   -5.1216   -0.5277   -0.1189 H   0  0  0  0  0  0  0  0  0  0  0  0
   -3.9972   -0.8223   -1.4645 H   0  0  0  0  0  0  0  0  0  0  0  0
   -1.2404    2.5830    1.3207 H   0  0  0  0  0  0  0  0  0  0  0  0
   -3.7557   -2.3043    1.1748 H   0  0  0  0  0  0  0  0  0  0  0  0
   -2.4199   -2.3835    2.3041 H   0  0  0  0  0  0  0  0  0  0  0  0
   -0.8307   -2.7084    0.3479 H   0  0  0  0  0  0  0  0  0  0  0  0
   -2.2152   -2.8553   -0.7323 H   0  0  0  0  0  0  0  0  0  0  0  0
    0.1634   -4.6174    0.4572 H   0  0  0  0  0  0  0  0  0  0  0  0
   -0.7443   -5.4580   -0.8324 H   0  0  0  0  0  0  0  0  0  0  0  0
   -0.6723   -6.1284    0.8195 H   0  0  0  0  0  0  0  0  0  0  0  0
   -2.4153   -6.8579   -0.3154 H   0  0  0  0  0  0  0  0  0  0  0  0
   -3.9867   -7.2818    2.2860 H   0  0  0  0  0  0  0  0  0  0  0  0
   -2.2503   -7.0473    2.2567 H   0  0  0  0  0  0  0  0  0  0  0  0
   -2.8574   -9.4712    2.2195 H   0  0  0  0  0  0  0  0  0  0  0  0
   -1.9089   -8.9829    0.8111 H   0  0  0  0  0  0  0  0  0  0  0  0
   -3.6192  -10.3839   -0.0634 H   0  0  0  0  0  0  0  0  0  0  0  0
   -5.4856   -8.9113    1.4880 H   0  0  0  0  0  0  0  0  0  0  0  0
   -5.2474   -8.8335   -1.3023 H   0  0  0  0  0  0  0  0  0  0  0  0
   -3.5263   -8.5243   -1.5522 H   0  0  0  0  0  0  0  0  0  0  0  0
   -5.3883   -6.9515    0.3004 H   0  0  0  0  0  0  0  0  0  0  0  0
   -4.7068   -6.4098   -1.2276 H   0  0  0  0  0  0  0  0  0  0  0  0
  1  2  1  0  0  0  0
  1 20  1  0  0  0  0
  1 21  1  0  0  0  0
  1 22  1  0  0  0  0
  2  3  1  0  0  0  0
  2  6  2  0  0  0  0
  3  4  2  0  0  0  0
  4  5  1  0  0  0  0
  4 23  1  0  0  0  0
  5  6  1  0  0  0  0
  6  7  1  0  0  0  0
  7  8  1  0  0  0  0
  7 24  1  0  0  0  0
  7 25  1  0  0  0  0
  8  9  1  0  0  0  0
  8 26  1  0  0  0  0
  8 27  1  0  0  0  0
  9 10  1  0  0  0  0
  9 11  1  0  0  0  0
 10 28  1  0  0  0  0
 10 29  1  0  0  0  0
 10 30  1  0  0  0  0
 11 12  2  0  0  0  0
 11 13  1  0  0  0  0
 13 14  1  0  0  0  0
 13 19  1  0  0  0  0
 13 31  1  6  0  0  0
 14 15  1  0  0  0  0
 14 32  1  0  0  0  0
 14 33  1  0  0  0  0
 15 16  1  0  0  0  0
 15 34  1  0  0  0  0
 15 35  1  0  0  0  0
 16 18  1  0  0  0  0
 16 17  1  0  0  0  0
 16 36  1  6  0  0  0
 17 37  1  0  0  0  0
 18 19  1  0  0  0  0
 18 38  1  0  0  0  0
 18 39  1  0  0  0  0
 19 40  1  0  0  0  0
 19 41  1  0  0  0  0
M  END
$$$$
CHEMBL3477154
 OpenBabel01072218243D

 36 37  0  0  0  0  0  0  0  0999 V2000
   -3.9181    0.1129   -0.8444 C   0  0  0  0  0  0  0  0  0  0  0  0
   -2.7763    0.3040    0.0915 C   0  0  0  0  0  0  0  0  0  0  0  0
   -2.2368    1.5736    0.2140 N   0  0  0  0  0  0  0  0  0  0  0  0
   -1.2653    1.5634    1.0967 C   0  0  0  0  0  0  0  0  0  0  0  0
   -0.9117    0.0484    1.8103 S   0  0  0  0  0  0  0  0  0  0  0  0
   -2.1761   -0.6617    0.8909 C   0  0  0  0  0  0  0  0  0  0  0  0
   -2.5124   -2.1167    1.0488 C   0  0  0  0  0  0  0  0  0  0  0  0
   -1.7766   -2.9929    0.0197 C   0  0  0  0  0  0  0  0  0  0  0  0
   -1.9626   -4.4514    0.1455 N   0  0  0  0  0  0  0  0  0  0  0  0
   -0.8885   -5.2661   -0.4345 C   0  0  0  0  0  0  0  0  0  0  0  0
   -3.2946   -4.9379    0.1970 C   0  0  0  0  0  0  0  0  0  0  0  0
   -4.2557   -4.1721    0.1938 O   0  0  0  0  0  0  0  0  0  0  0  0
   -3.5697   -6.3978    0.3316 C   0  0  0  0  0  0  0  0  0  0  0  0
   -2.8063   -7.2358    1.1566 C   0  0  0  0  0  0  0  0  0  0  0  0
   -1.8155   -6.7864    1.9883 O   0  0  0  0  0  0  0  0  0  0  0  0
   -3.0672   -8.6055    1.2309 C   0  0  0  0  0  0  0  0  0  0  0  0
   -4.1640   -9.1473    0.5662 C   0  0  0  0  0  0  0  0  0  0  0  0
   -5.0037   -8.3187   -0.1718 C   0  0  0  0  0  0  0  0  0  0  0  0
   -4.6979   -6.9617   -0.2992 C   0  0  0  0  0  0  0  0  0  0  0  0
   -5.5413   -6.1965   -1.0655 O   0  0  0  0  0  0  0  0  0  0  0  0
   -4.1811    1.0566   -1.3341 H   0  0  0  0  0  0  0  0  0  0  0  0
   -4.8028   -0.2453   -0.3089 H   0  0  0  0  0  0  0  0  0  0  0  0
   -3.6612   -0.6106   -1.6239 H   0  0  0  0  0  0  0  0  0  0  0  0
   -0.7167    2.4570    1.3625 H   0  0  0  0  0  0  0  0  0  0  0  0
   -3.5979   -2.1989    0.9499 H   0  0  0  0  0  0  0  0  0  0  0  0
   -2.2766   -2.4616    2.0621 H   0  0  0  0  0  0  0  0  0  0  0  0
   -0.7001   -2.7973    0.1296 H   0  0  0  0  0  0  0  0  0  0  0  0
   -2.0567   -2.7144   -1.0020 H   0  0  0  0  0  0  0  0  0  0  0  0
   -0.1301   -4.6269   -0.8978 H   0  0  0  0  0  0  0  0  0  0  0  0
   -1.2836   -5.9476   -1.1902 H   0  0  0  0  0  0  0  0  0  0  0  0
   -0.3808   -5.8275    0.3521 H   0  0  0  0  0  0  0  0  0  0  0  0
   -1.8394   -5.8115    1.9979 H   0  0  0  0  0  0  0  0  0  0  0  0
   -2.4296   -9.2434    1.8367 H   0  0  0  0  0  0  0  0  0  0  0  0
   -4.3764  -10.2106    0.6439 H   0  0  0  0  0  0  0  0  0  0  0  0
   -5.8782   -8.7435   -0.6566 H   0  0  0  0  0  0  0  0  0  0  0  0
   -6.4400   -6.5618   -1.0068 H   0  0  0  0  0  0  0  0  0  0  0  0
  1  2  1  0  0  0  0
  1 21  1  0  0  0  0
  1 22  1  0  0  0  0
  1 23  1  0  0  0  0
  2  3  1  0  0  0  0
  2  6  2  0  0  0  0
  3  4  2  0  0  0  0
  4  5  1  0  0  0  0
  4 24  1  0  0  0  0
  5  6  1  0  0  0  0
  6  7  1  0  0  0  0
  7  8  1  0  0  0  0
  7 25  1  0  0  0  0
  7 26  1  0  0  0  0
  8  9  1  0  0  0  0
  8 27  1  0  0  0  0
  8 28  1  0  0  0  0
  9 10  1  0  0  0  0
  9 11  1  0  0  0  0
 10 29  1  0  0  0  0
 10 30  1  0  0  0  0
 10 31  1  0  0  0  0
 11 12  2  0  0  0  0
 11 13  1  0  0  0  0
 13 14  1  0  0  0  0
 13 19  2  0  0  0  0
 14 15  1  0  0  0  0
 14 16  2  0  0  0  0
 15 32  1  0  0  0  0
 16 17  1  0  0  0  0
 16 33  1  0  0  0  0
 17 18  2  0  0  0  0
 17 34  1  0  0  0  0
 18 19  1  0  0  0  0
 18 35  1  0  0  0  0
 19 20  1  0  0  0  0
 20 36  1  0  0  0  0
M  END
$$$$
